Warning: Permanently added 'r1i1n34.ib0.ice.ifremer.fr,10.148.0.72' (ECDSA) to the list of known hosts.
job running on  56  processors
Initial 3D MT model:MT3D_CPSO_datar_chained.py:78: FutureWarning: arrays to stack must be passed as a "sequence" type such as list or tuple. Support for non-sequence iterables such as generators is deprecated as of NumPy 1.16 and will raise an error in the future.
  hx=np.hstack(float(lx.split()[i]) for i in np.arange(nx) )
MT3D_CPSO_datar_chained.py:79: FutureWarning: arrays to stack must be passed as a "sequence" type such as list or tuple. Support for non-sequence iterables such as generators is deprecated as of NumPy 1.16 and will raise an error in the future.
  hy=np.hstack(float(ly.split()[i]) for i in np.arange(ny) )
MT3D_CPSO_datar_chained.py:80: FutureWarning: arrays to stack must be passed as a "sequence" type such as list or tuple. Support for non-sequence iterables such as generators is deprecated as of NumPy 1.16 and will raise an error in the future.
  hz=np.hstack(float(lz.split()[i]) for i in np.arange(nz) )
MT3D_CPSO_datar_chained.py:84: FutureWarning: arrays to stack must be passed as a "sequence" type such as list or tuple. Support for non-sequence iterables such as generators is deprecated as of NumPy 1.16 and will raise an error in the future.
  Xi=np.log10(np.hstack(float(l.split()[i+1]) for i in np.arange(len(l.split())-1) ))
MT3D_CPSO_datar_chained.py:95: FutureWarning: arrays to stack must be passed as a "sequence" type such as list or tuple. Support for non-sequence iterables such as generators is deprecated as of NumPy 1.16 and will raise an error in the future.
  L=np.vstack(float(l.split()[i]) for i in np.arange(nx) )
UTM references of the MT model (lower left corner, east/north):Rotation angle of the MT model (clockwise)Magnetotelluric sounding position file (labm,xMT,yMT,zMT,rotMT) :Size of model SWARM:Number of iteration:n_dim 4
len(Xi) 4
n_dim 4
len(Xi) 4
n_dim 4
len(Xi) 4
n_dim 4
len(Xi) 4
n_dim 4
len(Xi) 4
n_dim 4
len(Xi) 4
n_dim 4
len(Xi) 4
n_dim 4
len(Xi) 4
n_dim 4
len(Xi) 4
n_dim 4
len(Xi) 4
n_dim 4
len(Xi) 4
n_dim 4
len(Xi) 4
n_dim 4
len(Xi) 4
n_dim 4
len(Xi) 4
n_dim 4
len(Xi) 4
n_dim 4
len(Xi) 4
n_dim 4
len(Xi) 4
n_dim 4
len(Xi) 4
n_dim 4
len(Xi) 4
n_dim 4
len(Xi) 4
n_dim 4
len(Xi) 4
n_dim 4
len(Xi) 4
n_dim 4
len(Xi) 4
n_dim 4
len(Xi) 4
n_dim 4
len(Xi) 4
n_dim 4
len(Xi) 4
n_dim 4
len(Xi) 4
n_dim 4
len(Xi) 4
n_dim 4
len(Xi) 4
n_dim 4
len(Xi) 4
n_dim 4
len(Xi) 4
n_dim 4
len(Xi) 4
n_dim 4
len(Xi) 4
n_dim 4
len(Xi) 4
n_dim 4
len(Xi) 4
n_dim 4
len(Xi) 4
n_dim 4
len(Xi) 4
n_dim 4
len(Xi) 4
n_dim 4
len(Xi) 4
n_dim 4
len(Xi) 4
n_dim 4
len(Xi) 4
n_dim 4
len(Xi) 4
n_dim 4
len(Xi) 4
n_dim 4
len(Xi) 4
n_dim 4
len(Xi) 4
n_dim 4
len(Xi) 4
n_dim 4
len(Xi) 4
n_dim 4
len(Xi) 4
n_dim 4
len(Xi) 4
n_dim 4
len(Xi) 4
n_dim 4
len(Xi) 4
n_dim 4
len(Xi) 4
n_dim 4
len(Xi) 4
n_dim 4
len(Xi) 4
n_dim 4
len(Xi) 4
n_dim 4
len(Xi) 4
 
 ################
 ----------------
 CALL MACKIE F2PY
 ----------------
 ################
 
Elapsed time: 0.00 seconds
Elapsed time: 0.00 seconds
Elapsed time: 0.00 seconds
Elapsed time: 0.00 seconds
Elapsed time: 0.00 seconds
Elapsed time: 0.00 seconds
Elapsed time: 0.00 seconds
Elapsed time: 0.00 seconds
Elapsed time: 0.00 seconds
Elapsed time: 0.00 seconds
Elapsed time: 0.00 seconds
Elapsed time: 0.00 seconds
Elapsed time: 0.00 seconds
Elapsed time: 0.00 seconds
Elapsed time: 0.00 seconds
Elapsed time: 0.00 seconds
Elapsed time: 0.00 seconds
Elapsed time: 0.00 seconds
Elapsed time: 0.00 seconds
Elapsed time: 0.00 seconds
Elapsed time: 0.00 seconds
Elapsed time: 0.00 seconds
Elapsed time: 0.00 seconds
Elapsed time: 0.00 seconds
Elapsed time: 0.00 seconds
Elapsed time: 0.00 seconds
Elapsed time: 0.00 seconds
Elapsed time: 0.00 seconds
Elapsed time: 0.00 seconds
Elapsed time: 0.00 seconds
Elapsed time: 0.00 seconds
Elapsed time: 0.00 seconds
Elapsed time: 0.00 seconds
Elapsed time: 0.00 seconds
Elapsed time: 0.00 seconds
Elapsed time: 0.00 seconds
Elapsed time: 0.00 seconds
Elapsed time: 0.00 seconds
Elapsed time: 0.00 seconds
Elapsed time: 0.00 seconds
Elapsed time: 0.00 seconds
Elapsed time: 0.00 seconds
Elapsed time: 0.00 seconds
Elapsed time: 0.00 seconds
Elapsed time: 0.00 seconds
Elapsed time: 0.00 seconds
Elapsed time: 0.00 seconds
Elapsed time: 0.00 seconds
Elapsed time: 0.00 seconds
Elapsed time: 0.00 seconds
Elapsed time: 0.00 seconds
Elapsed time: 0.00 seconds
Elapsed time: 0.00 seconds
Elapsed time: 0.00 seconds
Elapsed time: 0.00 seconds
Elapsed time: 0.00 seconds
Elapsed time: 0.00 seconds
Elapsed time: 0.00 seconds
Elapsed time: 0.00 seconds
Elapsed time: 0.00 seconds
Elapsed time: 0.00 seconds
Elapsed time: 0.00 seconds
Elapsed time: 0.00 seconds
Elapsed time: 0.00 seconds
Elapsed time: 0.00 seconds
Elapsed time: 0.00 seconds
Elapsed time: 0.00 seconds
Elapsed time: 0.00 seconds
Elapsed time: 0.00 seconds
Elapsed time: 0.00 seconds
Elapsed time: 0.00 seconds
Elapsed time: 0.00 seconds
Elapsed time: 0.00 seconds
Elapsed time: 0.00 seconds
Elapsed time: 0.00 seconds
Elapsed time: 0.00 seconds
Elapsed time: 0.00 seconds
Elapsed time: 0.00 seconds
Elapsed time: 0.00 seconds
Elapsed time: 0.00 seconds
Elapsed time: 0.00 seconds
Elapsed time: 0.00 seconds
Elapsed time: 0.00 seconds
Elapsed time: 0.00 seconds
Elapsed time: 0.00 seconds
Elapsed time: 0.00 seconds
Elapsed time: 0.00 seconds
Elapsed time: 0.00 seconds
 
 ################
 ----------------
 CALL MACKIE F2PY
 ----------------
 ################
 
Elapsed time: 0.00 seconds
Elapsed time: 0.00 seconds
Elapsed time: 0.00 seconds
Elapsed time: 0.00 seconds
Elapsed time: 0.00 seconds
Elapsed time: 0.00 seconds
Elapsed time: 0.00 seconds
Elapsed time: 0.00 seconds
Elapsed time: 0.00 seconds
Elapsed time: 0.00 seconds
Elapsed time: 0.00 seconds
Elapsed time: 0.00 seconds
Elapsed time: 0.00 seconds
Elapsed time: 0.00 seconds
Elapsed time: 0.00 seconds
Elapsed time: 0.00 seconds
Elapsed time: 0.00 seconds
Elapsed time: 0.00 seconds
Elapsed time: 0.00 seconds
Elapsed time: 0.00 seconds
Elapsed time: 0.00 seconds
Elapsed time: 0.00 secondsElapsed time: 0.00 seconds
Elapsed time: 0.00 seconds

Elapsed time: 0.00 seconds
Elapsed time: 0.00 seconds
Elapsed time: 0.00 seconds
Elapsed time: 0.00 seconds
Elapsed time: 0.00 seconds
Elapsed time: 0.00 seconds
Elapsed time: 0.00 seconds
Elapsed time: 0.00 seconds
Elapsed time: 0.00 seconds
Elapsed time: 0.00 seconds
Elapsed time: 0.00 seconds
Elapsed time: 0.00 seconds
Elapsed time: 0.00 seconds
Elapsed time: 0.00 seconds
Elapsed time: 0.00 seconds
Elapsed time: 0.00 seconds
Elapsed time: 0.00 seconds
Elapsed time: 0.00 seconds
Elapsed time: 0.00 seconds
Elapsed time: 0.00 seconds
Elapsed time: 0.00 seconds
Elapsed time: 0.00 seconds
Elapsed time: 0.00 seconds
Elapsed time: 0.00 seconds
Elapsed time: 0.00 seconds
Elapsed time: 0.00 seconds
Elapsed time: 0.00 seconds
Elapsed time: 0.00 seconds
Elapsed time: 0.00 seconds
 
 ################
 ----------------
 CALL MACKIE F2PY
 ----------------
 ################
 
Elapsed time: 0.00 seconds
Elapsed time: 0.00 seconds
Elapsed time: 0.00 seconds
Elapsed time: 0.00 seconds
Elapsed time: 0.00 seconds
Elapsed time: 0.00 seconds
Elapsed time: 0.00 seconds
Elapsed time: 0.00 seconds
Elapsed time: 0.00 seconds
Elapsed time: 0.00 seconds
Elapsed time: 0.00 seconds
Elapsed time: 0.00 seconds
Elapsed time: 0.00 seconds
Elapsed time: 0.00 seconds
Elapsed time: 0.00 seconds
Elapsed time: 0.00 seconds
Elapsed time: 0.00 seconds
Elapsed time: 0.00 seconds
Elapsed time: 0.00 seconds
Elapsed time: 0.00 seconds
Elapsed time: 0.00 seconds
Elapsed time: 0.00 seconds
Elapsed time: 0.00 seconds
Elapsed time: 0.00 seconds
Elapsed time: 0.00 seconds
Elapsed time: 0.00 seconds
Elapsed time: 0.00 seconds
Elapsed time: 0.00 seconds
Elapsed time: 0.00 seconds
Elapsed time: 0.00 seconds
Elapsed time: 0.00 seconds
Elapsed time: 0.00 seconds
Elapsed time: 0.00 seconds
Elapsed time: 0.00 seconds
Elapsed time: 0.00 seconds
Elapsed time: 0.00 seconds
Elapsed time: 0.00 seconds
Elapsed time: 0.00 seconds
Elapsed time: 0.00 seconds
Elapsed time: 0.00 seconds
Elapsed time: 0.00 seconds
Elapsed time: 0.00 seconds
Elapsed time: 0.00 seconds
Elapsed time: 0.00 seconds
Elapsed time: 0.00 seconds
Elapsed time: 0.00 seconds
Elapsed time: 0.00 seconds
Elapsed time: 0.00 seconds
Elapsed time: 0.00 seconds
Elapsed time: 0.00 seconds
Elapsed time: 0.00 seconds
Elapsed time: 0.00 seconds
Elapsed time: 0.00 seconds
Elapsed time: 0.00 seconds
Elapsed time: 0.00 seconds
Elapsed time: 0.00 seconds
Elapsed time: 0.00 seconds
 
 ################
 ----------------
 CALL MACKIE F2PY
 ----------------
 ################
 
Elapsed time: 0.00 seconds
Elapsed time: 0.00 seconds
Elapsed time: 0.00 seconds
Elapsed time: 0.00 seconds
Elapsed time: 0.00 seconds
Elapsed time: 0.00 seconds
Elapsed time: 0.00 seconds
Elapsed time: 0.00 seconds
Elapsed time: 0.00 seconds
Elapsed time: 0.00 seconds
Elapsed time: 0.00 seconds
Elapsed time: 0.00 seconds
Elapsed time: 0.00 seconds
Elapsed time: 0.00 seconds
Elapsed time: 0.00 seconds
Elapsed time: 0.00 seconds
Elapsed time: 0.00 seconds
Elapsed time: 0.00 seconds
Elapsed time: 0.00 seconds
Elapsed time: 0.00 seconds
Elapsed time: 0.00 seconds
Elapsed time: 0.00 seconds
Elapsed time: 0.00 seconds
Elapsed time: 0.00 seconds
Elapsed time: 0.00 seconds
Elapsed time: 0.00 seconds
Elapsed time: 0.00 seconds
Elapsed time: 0.00 seconds
Elapsed time: 0.00 seconds
Elapsed time: 0.00 seconds
Elapsed time: 0.00 seconds
Elapsed time: 0.00 seconds
Elapsed time: 0.00 seconds
Elapsed time: 0.00 seconds
Elapsed time: 0.00 seconds
Elapsed time: 0.00 seconds
Elapsed time: 0.00 seconds
Elapsed time: 0.00 seconds
Elapsed time: 0.00 seconds
Elapsed time: 0.00 seconds
Elapsed time: 0.00 seconds
Elapsed time: 0.00 seconds
Elapsed time: 0.00 seconds
Elapsed time: 0.00 seconds
Elapsed time: 0.00 seconds
Elapsed time: 0.00 seconds
Elapsed time: 0.00 seconds
Elapsed time: 0.00 seconds
Elapsed time: 0.00 seconds
Elapsed time: 0.00 seconds
Elapsed time: 0.00 seconds
Elapsed time: 0.00 seconds
 
 ################
 ----------------
 CALL MACKIE F2PY
 ----------------
 ################
 
Elapsed time: 0.00 seconds
Elapsed time: 0.00 seconds
Elapsed time: 0.00 seconds
Elapsed time: 0.00 seconds
Elapsed time: 0.00 seconds
Elapsed time: 0.00 seconds
Elapsed time: 0.00 secondsElapsed time: 0.00 seconds
Elapsed time: 0.00 seconds
Elapsed time: 0.00 seconds
Elapsed time: 0.00 seconds
Elapsed time: 0.00 seconds
Elapsed time: 0.00 seconds
Elapsed time: 0.00 seconds
Elapsed time: 0.00 seconds
Elapsed time: 0.00 seconds
Elapsed time: 0.00 seconds
Elapsed time: 0.00 seconds
Elapsed time: 0.00 seconds
Elapsed time: 0.00 seconds
Elapsed time: 0.00 seconds
Elapsed time: 0.00 seconds
Elapsed time: 0.00 seconds
Elapsed time: 0.00 seconds
Elapsed time: 0.00 seconds
Elapsed time: 0.00 seconds
Elapsed time: 0.00 seconds
Elapsed time: 0.00 seconds

Elapsed time: 0.00 seconds
Elapsed time: 0.00 seconds
Elapsed time: 0.00 seconds
Elapsed time: 0.00 seconds
Elapsed time: 0.00 seconds
Elapsed time: 0.00 seconds
Elapsed time: 0.00 seconds
Elapsed time: 0.00 seconds
Elapsed time: 0.00 seconds
Elapsed time: 0.00 seconds
Elapsed time: 0.00 seconds
Elapsed time: 0.00 seconds
Elapsed time: 0.00 seconds
Elapsed time: 0.00 seconds
Elapsed time: 0.00 seconds
Elapsed time: 0.00 seconds
Elapsed time: 0.00 seconds
Elapsed time: 0.00 seconds
Elapsed time: 0.00 seconds
Elapsed time: 0.00 seconds
Elapsed time: 0.00 seconds
Elapsed time: 0.00 seconds
Elapsed time: 0.00 seconds
Elapsed time: 0.00 seconds
Elapsed time: 0.00 seconds
Elapsed time: 0.00 seconds
Elapsed time: 0.00 seconds
Elapsed time: 0.00 seconds
 
 ################
 ----------------
 CALL MACKIE F2PY
 ----------------
 ################
 
Elapsed time: 0.00 seconds
Elapsed time: 0.00 seconds
Elapsed time: 0.00 seconds
Elapsed time: 0.00 seconds
Elapsed time: 0.00 seconds
Elapsed time: 0.00 secondsElapsed time: 0.00 seconds
Elapsed time: 0.00 seconds
Elapsed time: 0.00 seconds
Elapsed time: 0.00 seconds
Elapsed time: 0.00 seconds
Elapsed time: 0.00 seconds
Elapsed time: 0.00 seconds
Elapsed time: 0.00 seconds
Elapsed time: 0.00 seconds
Elapsed time: 0.00 seconds
Elapsed time: 0.00 seconds
Elapsed time: 0.00 seconds
Elapsed time: 0.00 seconds
Elapsed time: 0.00 seconds
Elapsed time: 0.00 seconds
Elapsed time: 0.00 seconds
Elapsed time: 0.00 seconds
Elapsed time: 0.00 seconds
Elapsed time: 0.00 seconds
Elapsed time: 0.00 seconds
Elapsed time: 0.00 seconds
Elapsed time: 0.00 seconds

Elapsed time: 0.00 seconds
Elapsed time: 0.00 seconds
Elapsed time: 0.00 seconds
Elapsed time: 0.00 seconds
Elapsed time: 0.00 seconds
Elapsed time: 0.00 seconds
Elapsed time: 0.00 seconds
Elapsed time: 0.00 seconds
Elapsed time: 0.00 seconds
Elapsed time: 0.00 seconds
Elapsed time: 0.00 seconds
Elapsed time: 0.00 seconds
Elapsed time: 0.00 seconds
Elapsed time: 0.00 seconds
Elapsed time: 0.00 seconds
Elapsed time: 0.00 seconds
Elapsed time: 0.00 seconds
Elapsed time: 0.00 seconds
Elapsed time: 0.00 seconds
Elapsed time: 0.00 seconds
Elapsed time: 0.00 seconds
Elapsed time: 0.00 seconds
Elapsed time: 0.00 seconds
Elapsed time: 0.00 seconds
Elapsed time: 0.00 seconds
Elapsed time: 0.00 seconds
Elapsed time: 0.00 seconds
Elapsed time: 0.00 seconds
 
 ################
 ----------------
 CALL MACKIE F2PY
 ----------------
 ################
 
Elapsed time: 0.00 seconds
Elapsed time: 0.00 seconds
Elapsed time: 0.00 seconds
Elapsed time: 0.00 seconds
Elapsed time: 0.00 seconds
Elapsed time: 0.00 seconds
Elapsed time: 0.00 seconds
Elapsed time: 0.00 seconds
Elapsed time: 0.00 seconds
Elapsed time: 0.00 seconds
Elapsed time: 0.00 seconds
Elapsed time: 0.00 seconds
Elapsed time: 0.00 seconds
Elapsed time: 0.00 seconds
Elapsed time: 0.00 seconds
Elapsed time: 0.00 seconds
Elapsed time: 0.00 seconds
Elapsed time: 0.00 seconds
Elapsed time: 0.00 seconds
Elapsed time: 0.00 seconds
Elapsed time: 0.00 seconds
Elapsed time: 0.00 seconds
Elapsed time: 0.00 seconds
Elapsed time: 0.00 seconds
Elapsed time: 0.00 seconds
Elapsed time: 0.00 seconds
Elapsed time: 0.00 seconds
Elapsed time: 0.00 seconds
Elapsed time: 0.00 seconds
Elapsed time: 0.00 seconds
Elapsed time: 0.00 seconds
Elapsed time: 0.00 seconds
Elapsed time: 0.00 seconds
Elapsed time: 0.00 seconds
Elapsed time: 0.00 seconds
Elapsed time: 0.00 seconds
Elapsed time: 0.00 seconds
Elapsed time: 0.00 seconds
Elapsed time: 0.00 seconds
Elapsed time: 0.00 seconds
Elapsed time: 0.00 seconds
Elapsed time: 0.00 seconds
Elapsed time: 0.00 seconds
Elapsed time: 0.00 seconds
Elapsed time: 0.00 seconds
Elapsed time: 0.00 seconds
Elapsed time: 0.00 seconds
Elapsed time: 0.00 seconds
Elapsed time: 0.00 seconds
Elapsed time: 0.00 seconds
Elapsed time: 0.00 seconds
Elapsed time: 0.00 seconds
Elapsed time: 0.00 seconds
Elapsed time: 0.00 seconds
Elapsed time: 0.00 seconds
Elapsed time: 0.00 seconds
 
 ################
 ----------------
 CALL MACKIE F2PY
 ----------------
 ################
 
Elapsed time: 0.00 seconds
Elapsed time: 0.00 seconds
Elapsed time: 0.00 seconds
Elapsed time: 0.00 seconds
Elapsed time: 0.00 seconds
Elapsed time: 0.00 seconds
Elapsed time: 0.00 seconds
Elapsed time: 0.00 seconds
Elapsed time: 0.00 seconds
Elapsed time: 0.00 seconds
Elapsed time: 0.00 seconds
Elapsed time: 0.00 seconds
Elapsed time: 0.00 seconds
Elapsed time: 0.00 seconds
Elapsed time: 0.00 seconds
Elapsed time: 0.00 seconds
Elapsed time: 0.00 seconds
Elapsed time: 0.00 seconds
Elapsed time: 0.00 seconds
Elapsed time: 0.00 seconds
Elapsed time: 0.00 seconds
Elapsed time: 0.00 seconds
Elapsed time: 0.00 seconds
Elapsed time: 0.00 seconds
Elapsed time: 0.00 seconds
Elapsed time: 0.00 seconds
Elapsed time: 0.00 seconds
Elapsed time: 0.00 seconds
Elapsed time: 0.00 seconds
Elapsed time: 0.00 seconds
Elapsed time: 0.00 seconds
Elapsed time: 0.00 seconds
Elapsed time: 0.00 seconds
Elapsed time: 0.00 seconds
Elapsed time: 0.00 seconds
Elapsed time: 0.00 seconds
Elapsed time: 0.00 seconds
Elapsed time: 0.00 seconds
Elapsed time: 0.00 seconds
Elapsed time: 0.00 seconds
Elapsed time: 0.00 seconds
Elapsed time: 0.00 seconds
Elapsed time: 0.00 seconds
Elapsed time: 0.00 seconds
Elapsed time: 0.00 seconds
Elapsed time: 0.00 seconds
Elapsed time: 0.00 seconds
Elapsed time: 0.00 seconds
Elapsed time: 0.00 seconds
Elapsed time: 0.00 seconds
 
 ################
 ----------------
 CALL MACKIE F2PY
 ----------------
 ################
 
Elapsed time: 0.00 seconds
Elapsed time: 0.00 seconds
Elapsed time: 0.00 seconds
Elapsed time: 0.00 seconds
Elapsed time: 0.00 seconds
Elapsed time: 0.00 seconds
Elapsed time: 0.00 seconds
Elapsed time: 0.00 seconds
Elapsed time: 0.00 seconds
Elapsed time: 0.00 seconds
Elapsed time: 0.00 seconds
Elapsed time: 0.00 seconds
Elapsed time: 0.00 seconds
Elapsed time: 0.00 seconds
Elapsed time: 0.00 seconds
Elapsed time: 0.00 seconds
Elapsed time: 0.00 seconds
Elapsed time: 0.00 seconds
Elapsed time: 0.00 seconds
Elapsed time: 0.00 seconds
Elapsed time: 0.00 seconds
Elapsed time: 0.00 seconds
Elapsed time: 0.00 seconds
Elapsed time: 0.00 seconds
Elapsed time: 0.00 seconds
Elapsed time: 0.00 seconds
Elapsed time: 0.00 seconds
Elapsed time: 0.00 seconds
Elapsed time: 0.00 seconds
Elapsed time: 0.00 seconds
Elapsed time: 0.00 seconds
Elapsed time: 0.00 seconds
Elapsed time: 0.00 seconds
Elapsed time: 0.00 seconds
Elapsed time: 0.00 seconds
Elapsed time: 0.00 seconds
Elapsed time: 0.00 seconds
Elapsed time: 0.00 seconds
Elapsed time: 0.00 seconds
Elapsed time: 0.00 seconds
Elapsed time: 0.00 seconds
Elapsed time: 0.00 seconds
Elapsed time: 0.00 seconds
Elapsed time: 0.00 seconds
Elapsed time: 0.00 seconds
Elapsed time: 0.00 seconds
Elapsed time: 0.00 seconds
Elapsed time: 0.00 seconds
Elapsed time: 0.00 seconds
Elapsed time: 0.00 seconds
Elapsed time: 0.00 seconds
Elapsed time: 0.00 seconds
Elapsed time: 0.00 seconds
Elapsed time: 0.00 seconds
Elapsed time: 0.00 seconds
Elapsed time: 0.00 seconds
Elapsed time: 0.00 seconds
Elapsed time: 0.00 seconds
Elapsed time: 0.00 seconds
Elapsed time: 0.00 seconds
Elapsed time: 0.00 seconds
Elapsed time: 0.00 seconds
Elapsed time: 0.00 seconds
Elapsed time: 0.00 seconds
Elapsed time: 0.00 seconds
Elapsed time: 0.00 seconds
Elapsed time: 0.00 seconds
Elapsed time: 0.00 seconds
Elapsed time: 0.00 seconds
Elapsed time: 0.00 seconds
Elapsed time: 0.00 seconds
Elapsed time: 0.00 seconds
Elapsed time: 0.00 seconds
Elapsed time: 0.00 seconds
Elapsed time: 0.00 seconds
 
 ################
 ----------------
 CALL MACKIE F2PY
 ----------------
 ################
 
Elapsed time: 0.00 seconds
Elapsed time: 0.00 seconds
Elapsed time: 0.00 seconds
Elapsed time: 0.00 seconds
Elapsed time: 0.00 seconds
Elapsed time: 0.00 seconds
Elapsed time: 0.00 seconds
Elapsed time: 0.00 seconds
Elapsed time: 0.00 seconds
Elapsed time: 0.00 seconds
Elapsed time: 0.00 seconds
Elapsed time: 0.00 seconds
Elapsed time: 0.00 seconds
Elapsed time: 0.00 seconds
Elapsed time: 0.00 seconds
Elapsed time: 0.00 seconds
Elapsed time: 0.00 seconds
Elapsed time: 0.00 seconds
Elapsed time: 0.00 seconds
Elapsed time: 0.00 seconds
Elapsed time: 0.00 seconds
Elapsed time: 0.00 seconds
Elapsed time: 0.00 seconds
Elapsed time: 0.00 seconds
Elapsed time: 0.00 seconds
Elapsed time: 0.00 secondsElapsed time: 0.00 seconds
Elapsed time: 0.00 seconds
Elapsed time: 0.00 seconds
Elapsed time: 0.00 seconds
Elapsed time: 0.00 seconds
Elapsed time: 0.00 seconds
Elapsed time: 0.00 seconds
Elapsed time: 0.00 seconds
Elapsed time: 0.00 seconds
Elapsed time: 0.00 seconds
Elapsed time: 0.00 seconds
Elapsed time: 0.00 seconds
Elapsed time: 0.00 seconds
Elapsed time: 0.00 seconds
Elapsed time: 0.00 seconds
Elapsed time: 0.00 seconds
Elapsed time: 0.00 seconds
Elapsed time: 0.00 seconds
Elapsed time: 0.00 seconds
Elapsed time: 0.00 seconds
Elapsed time: 0.00 seconds
Elapsed time: 0.00 seconds
Elapsed time: 0.00 seconds
Elapsed time: 0.00 seconds
Elapsed time: 0.00 seconds
Elapsed time: 0.00 seconds
Elapsed time: 0.00 seconds
 
 ################
 ----------------
 CALL MACKIE F2PY
 ----------------
 ################
 
Elapsed time: 0.00 seconds
Elapsed time: 0.00 seconds
Elapsed time: 0.00 seconds
Elapsed time: 0.00 seconds
Elapsed time: 0.00 seconds
Elapsed time: 0.00 seconds
Elapsed time: 0.00 seconds
Elapsed time: 0.00 seconds
Elapsed time: 0.00 seconds
Elapsed time: 0.00 seconds
Elapsed time: 0.00 seconds
Elapsed time: 0.00 seconds
Elapsed time: 0.00 seconds
Elapsed time: 0.00 seconds
Elapsed time: 0.00 seconds
Elapsed time: 0.00 seconds
Elapsed time: 0.00 seconds
Elapsed time: 0.00 seconds
Elapsed time: 0.00 seconds

Elapsed time: 0.00 seconds
Elapsed time: 0.00 seconds
Elapsed time: 0.00 seconds
Elapsed time: 0.00 seconds
Elapsed time: 0.00 seconds
Elapsed time: 0.00 seconds
Elapsed time: 0.00 seconds
Elapsed time: 0.00 seconds
Elapsed time: 0.00 seconds
Elapsed time: 0.00 seconds
Elapsed time: 0.00 seconds
Elapsed time: 0.00 seconds
Elapsed time: 0.00 seconds
Elapsed time: 0.00 seconds
Elapsed time: 0.00 seconds
Elapsed time: 0.00 seconds
Elapsed time: 0.00 seconds
Elapsed time: 0.00 seconds
Elapsed time: 0.00 seconds
Elapsed time: 0.00 seconds
Elapsed time: 0.00 seconds
Elapsed time: 0.00 seconds
Elapsed time: 0.00 seconds
Elapsed time: 0.00 seconds
Elapsed time: 0.00 seconds
Elapsed time: 0.00 seconds
Elapsed time: 0.00 seconds
Elapsed time: 0.00 seconds
Elapsed time: 0.00 seconds
Elapsed time: 0.00 seconds
Elapsed time: 0.00 seconds
Elapsed time: 0.00 seconds
Elapsed time: 0.00 seconds
Elapsed time: 0.00 seconds
Elapsed time: 0.00 seconds
Elapsed time: 0.00 seconds
 
 ################
 ----------------
 CALL MACKIE F2PY
 ----------------
 ################
 
Elapsed time: 0.00 seconds
Elapsed time: 0.00 seconds
Elapsed time: 0.00 seconds
Elapsed time: 0.00 seconds
Elapsed time: 0.00 seconds
Elapsed time: 0.00 seconds
Elapsed time: 0.00 seconds
Elapsed time: 0.00 seconds
Elapsed time: 0.00 seconds
Elapsed time: 0.00 seconds
Elapsed time: 0.00 seconds
Elapsed time: 0.00 seconds
Elapsed time: 0.00 seconds
Elapsed time: 0.00 seconds
Elapsed time: 0.00 seconds
Elapsed time: 0.00 seconds
Elapsed time: 0.00 seconds
Elapsed time: 0.00 seconds
Elapsed time: 0.00 seconds
Elapsed time: 0.00 seconds
Elapsed time: 0.00 seconds
Elapsed time: 0.00 seconds
Elapsed time: 0.00 seconds
Elapsed time: 0.00 seconds
Elapsed time: 0.00 seconds
Elapsed time: 0.00 seconds
Elapsed time: 0.00 seconds
Elapsed time: 0.00 seconds
Elapsed time: 0.00 seconds
Elapsed time: 0.00 seconds
Elapsed time: 0.00 secondsElapsed time: 0.00 seconds
Elapsed time: 0.00 seconds
Elapsed time: 0.00 seconds
Elapsed time: 0.00 seconds
Elapsed time: 0.00 seconds
Elapsed time: 0.00 seconds
Elapsed time: 0.00 seconds
Elapsed time: 0.00 seconds
Elapsed time: 0.00 seconds
Elapsed time: 0.00 seconds
Elapsed time: 0.00 seconds
Elapsed time: 0.00 seconds
Elapsed time: 0.00 seconds
Elapsed time: 0.00 seconds
Elapsed time: 0.00 seconds
Elapsed time: 0.00 seconds
Elapsed time: 0.00 seconds
Elapsed time: 0.00 seconds
Elapsed time: 0.00 seconds
Elapsed time: 0.00 seconds
Elapsed time: 0.00 seconds
Elapsed time: 0.00 seconds
Elapsed time: 0.00 seconds
Elapsed time: 0.00 seconds
Elapsed time: 0.00 seconds
Elapsed time: 0.00 seconds
Elapsed time: 0.00 seconds
 
 ################
 ----------------
 CALL MACKIE F2PY
 ----------------
 ################
 
Elapsed time: 0.00 seconds
Elapsed time: 0.00 seconds
Elapsed time: 0.00 seconds
Elapsed time: 0.00 seconds
Elapsed time: 0.00 seconds
Elapsed time: 0.00 seconds
Elapsed time: 0.00 seconds
Elapsed time: 0.00 seconds
Elapsed time: 0.00 seconds
Elapsed time: 0.00 seconds
Elapsed time: 0.00 seconds
Elapsed time: 0.00 seconds
Elapsed time: 0.00 seconds
Elapsed time: 0.00 seconds
Elapsed time: 0.00 seconds
Elapsed time: 0.00 seconds
Elapsed time: 0.00 seconds

Elapsed time: 0.00 seconds
Elapsed time: 0.00 seconds
Elapsed time: 0.00 seconds
Elapsed time: 0.00 seconds
Elapsed time: 0.00 seconds
Elapsed time: 0.00 seconds
Elapsed time: 0.00 seconds
Elapsed time: 0.00 seconds
Elapsed time: 0.00 seconds
Elapsed time: 0.00 seconds
Elapsed time: 0.00 seconds
Elapsed time: 0.00 seconds
Elapsed time: 0.00 seconds
Elapsed time: 0.00 seconds
Elapsed time: 0.00 seconds
Elapsed time: 0.00 seconds
Elapsed time: 0.00 seconds
Elapsed time: 0.00 seconds
Elapsed time: 0.00 seconds
Elapsed time: 0.00 seconds
Elapsed time: 0.00 seconds
Elapsed time: 0.00 seconds
Elapsed time: 0.00 seconds
Elapsed time: 0.00 seconds
Elapsed time: 0.00 seconds
Elapsed time: 0.00 seconds
Elapsed time: 0.00 seconds
Elapsed time: 0.00 seconds
Elapsed time: 0.00 seconds
Elapsed time: 0.00 seconds
Elapsed time: 0.00 seconds
Elapsed time: 0.00 seconds
Elapsed time: 0.00 seconds
Elapsed time: 0.00 seconds
Elapsed time: 0.00 seconds
Elapsed time: 0.00 seconds
Elapsed time: 0.00 seconds
 
 ################
 ----------------
 CALL MACKIE F2PY
 ----------------
 ################
 
Elapsed time: 0.00 seconds
Elapsed time: 0.00 seconds
Elapsed time: 0.00 seconds
Elapsed time: 0.00 seconds
Elapsed time: 0.00 seconds
Elapsed time: 0.00 seconds
Elapsed time: 0.00 seconds
Elapsed time: 0.00 seconds
Elapsed time: 0.00 seconds
Elapsed time: 0.00 seconds
Elapsed time: 0.00 seconds
Elapsed time: 0.00 seconds
Elapsed time: 0.00 seconds
Elapsed time: 0.00 seconds
Elapsed time: 0.00 seconds
Elapsed time: 0.00 seconds
Elapsed time: 0.00 seconds
Elapsed time: 0.00 seconds
Elapsed time: 0.00 seconds
Elapsed time: 0.00 seconds
Elapsed time: 0.00 seconds
Elapsed time: 0.00 seconds
Elapsed time: 0.00 seconds
Elapsed time: 0.00 seconds
Elapsed time: 0.00 seconds
Elapsed time: 0.00 seconds
Elapsed time: 0.00 seconds
Elapsed time: 0.00 seconds
Elapsed time: 0.00 seconds
Elapsed time: 0.00 seconds
Elapsed time: 0.00 seconds
Elapsed time: 0.00 seconds
Elapsed time: 0.00 seconds
Elapsed time: 0.00 seconds
Elapsed time: 0.00 seconds
Elapsed time: 0.00 seconds
Elapsed time: 0.00 seconds
Elapsed time: 0.00 seconds
Elapsed time: 0.00 seconds
Elapsed time: 0.00 seconds
Elapsed time: 0.00 seconds
Elapsed time: 0.00 seconds
Elapsed time: 0.00 seconds
Elapsed time: 0.00 seconds
Elapsed time: 0.00 seconds
Elapsed time: 0.00 seconds
Elapsed time: 0.00 seconds
Elapsed time: 0.00 seconds
Elapsed time: 0.00 seconds
Elapsed time: 0.00 seconds
Elapsed time: 0.00 seconds
Elapsed time: 0.00 seconds
Elapsed time: 0.00 seconds
Elapsed time: 0.00 seconds
Elapsed time: 0.00 seconds
Elapsed time: 0.00 seconds
 
 ################
 ----------------
 CALL MACKIE F2PY
 ----------------
 ################
 
Elapsed time: 0.00 seconds
Elapsed time: 0.00 seconds
Elapsed time: 0.00 seconds
Elapsed time: 0.00 seconds
Elapsed time: 0.00 seconds
Elapsed time: 0.00 seconds
Elapsed time: 0.00 seconds
Elapsed time: 0.00 seconds
Elapsed time: 0.00 seconds
Elapsed time: 0.00 seconds
Elapsed time: 0.00 seconds
Elapsed time: 0.00 seconds
Elapsed time: 0.00 seconds
Elapsed time: 0.00 seconds
Elapsed time: 0.00 seconds
Elapsed time: 0.00 seconds
Elapsed time: 0.00 seconds
Elapsed time: 0.00 seconds
Elapsed time: 0.00 seconds
Elapsed time: 0.00 seconds
Elapsed time: 0.00 seconds
Elapsed time: 0.00 seconds
Elapsed time: 0.00 seconds
Elapsed time: 0.00 seconds
Elapsed time: 0.00 seconds
Elapsed time: 0.00 seconds
Elapsed time: 0.00 seconds
Elapsed time: 0.00 seconds
Elapsed time: 0.00 seconds
Elapsed time: 0.00 seconds
Elapsed time: 0.00 seconds
Elapsed time: 0.00 seconds
Elapsed time: 0.00 seconds
Elapsed time: 0.00 seconds
Elapsed time: 0.00 seconds
Elapsed time: 0.00 seconds
Elapsed time: 0.00 seconds
Elapsed time: 0.00 seconds
Elapsed time: 0.00 seconds
Elapsed time: 0.00 seconds
Elapsed time: 0.00 seconds
Elapsed time: 0.00 seconds
Elapsed time: 0.00 seconds
Elapsed time: 0.00 seconds
Elapsed time: 0.00 seconds
Elapsed time: 0.00 seconds
Elapsed time: 0.00 seconds
Elapsed time: 0.00 seconds
Elapsed time: 0.00 seconds
Elapsed time: 0.00 seconds
Elapsed time: 0.00 seconds
Elapsed time: 0.00 seconds
Elapsed time: 0.00 seconds
Elapsed time: 0.00 seconds
 
 ################
 ----------------
 CALL MACKIE F2PY
 ----------------
 ################
 
Elapsed time: 0.00 seconds
Elapsed time: 0.00 seconds
Elapsed time: 0.00 seconds
Elapsed time: 0.00 seconds
Elapsed time: 0.00 seconds
Elapsed time: 0.00 seconds
Elapsed time: 0.00 seconds
Elapsed time: 0.00 seconds
Elapsed time: 0.00 seconds
Elapsed time: 0.00 seconds
Elapsed time: 0.00 seconds
Elapsed time: 0.00 seconds
Elapsed time: 0.00 seconds
Elapsed time: 0.00 seconds
Elapsed time: 0.00 seconds
Elapsed time: 0.00 seconds
Elapsed time: 0.00 seconds
Elapsed time: 0.00 seconds
Elapsed time: 0.00 seconds
Elapsed time: 0.00 seconds
Elapsed time: 0.00 seconds
Elapsed time: 0.00 seconds
Elapsed time: 0.00 seconds
Elapsed time: 0.00 seconds
Elapsed time: 0.00 seconds
Elapsed time: 0.00 seconds
Elapsed time: 0.00 seconds
Elapsed time: 0.00 seconds
Elapsed time: 0.00 seconds
Elapsed time: 0.00 seconds
Elapsed time: 0.00 seconds
Elapsed time: 0.00 seconds
Elapsed time: 0.00 seconds
Elapsed time: 0.00 seconds
Elapsed time: 0.00 seconds
Elapsed time: 0.00 seconds
Elapsed time: 0.00 seconds
Elapsed time: 0.00 seconds
Elapsed time: 0.00 seconds
Elapsed time: 0.00 seconds
Elapsed time: 0.00 seconds
Elapsed time: 0.00 seconds
Elapsed time: 0.00 seconds
Elapsed time: 0.00 seconds
Elapsed time: 0.00 seconds
Elapsed time: 0.00 seconds
Elapsed time: 0.00 seconds
Elapsed time: 0.00 seconds
Elapsed time: 0.00 seconds
Elapsed time: 0.00 seconds
Elapsed time: 0.00 seconds
Elapsed time: 0.00 seconds
Elapsed time: 0.00 seconds
Elapsed time: 0.00 seconds
Elapsed time: 0.00 seconds
Elapsed time: 0.00 seconds
Elapsed time: 0.00 seconds
 
 ################
 ----------------
 CALL MACKIE F2PY
 ----------------
 ################
 
Elapsed time: 0.00 seconds
Elapsed time: 0.00 seconds
Elapsed time: 0.00 seconds
Elapsed time: 0.00 seconds
Elapsed time: 0.00 seconds
Elapsed time: 0.00 seconds
Elapsed time: 0.00 seconds
Elapsed time: 0.00 seconds
Elapsed time: 0.00 seconds
Elapsed time: 0.00 seconds
Elapsed time: 0.00 seconds
Elapsed time: 0.00 seconds
Elapsed time: 0.00 seconds
Elapsed time: 0.00 seconds
Elapsed time: 0.00 seconds
Elapsed time: 0.00 seconds
Elapsed time: 0.00 seconds
Elapsed time: 0.00 seconds
Elapsed time: 0.00 seconds
Elapsed time: 0.00 seconds
Elapsed time: 0.00 seconds
Elapsed time: 0.00 seconds
Elapsed time: 0.00 seconds
Elapsed time: 0.00 seconds
Elapsed time: 0.00 seconds
Elapsed time: 0.00 seconds
Elapsed time: 0.00 seconds
Elapsed time: 0.00 seconds
Elapsed time: 0.00 seconds
Elapsed time: 0.00 seconds
Elapsed time: 0.00 seconds
Elapsed time: 0.00 seconds
Elapsed time: 0.00 seconds
Elapsed time: 0.00 seconds
Elapsed time: 0.00 seconds
Elapsed time: 0.00 seconds
Elapsed time: 0.00 seconds
Elapsed time: 0.00 seconds
Elapsed time: 0.00 seconds
Elapsed time: 0.00 seconds
Elapsed time: 0.00 seconds
Elapsed time: 0.00 seconds
Elapsed time: 0.00 seconds
Elapsed time: 0.00 seconds
Elapsed time: 0.00 seconds
Elapsed time: 0.00 seconds
Elapsed time: 0.00 seconds
Elapsed time: 0.00 seconds
Elapsed time: 0.00 seconds
Elapsed time: 0.00 seconds
Elapsed time: 0.00 seconds
Elapsed time: 0.00 seconds
Elapsed time: 0.00 seconds
Elapsed time: 0.00 seconds
Elapsed time: 0.00 seconds
Elapsed time: 0.00 seconds
Elapsed time: 0.00 seconds
 
 ################
 ----------------
 CALL MACKIE F2PY
 ----------------
 ################
 
Elapsed time: 0.00 seconds
Elapsed time: 0.00 seconds
Elapsed time: 0.00 seconds
Elapsed time: 0.00 seconds
Elapsed time: 0.00 seconds
Elapsed time: 0.00 seconds
Elapsed time: 0.00 seconds
Elapsed time: 0.00 seconds
Elapsed time: 0.00 seconds
Elapsed time: 0.00 seconds
Elapsed time: 0.00 seconds
Elapsed time: 0.00 seconds
Elapsed time: 0.00 seconds
Elapsed time: 0.00 seconds
Elapsed time: 0.00 seconds
Elapsed time: 0.00 seconds
Elapsed time: 0.00 seconds
Elapsed time: 0.00 seconds
Elapsed time: 0.00 seconds
Elapsed time: 0.00 seconds
Elapsed time: 0.00 seconds
Elapsed time: 0.00 seconds
Elapsed time: 0.00 seconds
Elapsed time: 0.00 seconds
Elapsed time: 0.00 seconds
Elapsed time: 0.00 seconds
Elapsed time: 0.00 seconds
Elapsed time: 0.00 seconds
Elapsed time: 0.00 seconds
Elapsed time: 0.00 seconds
Elapsed time: 0.00 seconds
Elapsed time: 0.00 seconds
Elapsed time: 0.00 seconds
Elapsed time: 0.00 seconds
Elapsed time: 0.00 seconds
Elapsed time: 0.00 seconds
Elapsed time: 0.00 seconds
Elapsed time: 0.00 seconds
Elapsed time: 0.00 seconds
Elapsed time: 0.00 seconds
Elapsed time: 0.00 seconds
Elapsed time: 0.00 seconds
Elapsed time: 0.00 seconds
Elapsed time: 0.00 seconds
Elapsed time: 0.00 seconds
Elapsed time: 0.00 seconds
Elapsed time: 0.00 seconds
Elapsed time: 0.00 seconds
Elapsed time: 0.00 seconds
Elapsed time: 0.00 seconds
Elapsed time: 0.00 seconds
Elapsed time: 0.00 seconds
Elapsed time: 0.00 seconds
Elapsed time: 0.00 seconds
Elapsed time: 0.00 seconds
Elapsed time: 0.00 seconds
 
 ################
 ----------------
 CALL MACKIE F2PY
 ----------------
 ################
 
Elapsed time: 0.00 seconds
Elapsed time: 0.00 seconds
Elapsed time: 0.00 seconds
Elapsed time: 0.00 seconds
Elapsed time: 0.00 seconds
Elapsed time: 0.00 seconds
Elapsed time: 0.00 seconds
Elapsed time: 0.00 seconds
Elapsed time: 0.00 seconds
Elapsed time: 0.00 seconds
Elapsed time: 0.00 seconds
Elapsed time: 0.00 seconds
Elapsed time: 0.00 seconds
Elapsed time: 0.00 seconds
Elapsed time: 0.00 seconds
Elapsed time: 0.00 seconds
Elapsed time: 0.00 seconds
Elapsed time: 0.00 seconds
Elapsed time: 0.00 seconds
Elapsed time: 0.00 seconds
Elapsed time: 0.00 seconds
Elapsed time: 0.00 seconds
Elapsed time: 0.00 seconds
Elapsed time: 0.00 seconds
Elapsed time: 0.00 seconds
Elapsed time: 0.00 seconds
Elapsed time: 0.00 seconds
Elapsed time: 0.00 seconds
Elapsed time: 0.00 seconds
Elapsed time: 0.00 seconds
Elapsed time: 0.00 seconds
Elapsed time: 0.00 seconds
Elapsed time: 0.00 seconds
Elapsed time: 0.00 seconds
Elapsed time: 0.00 seconds
Elapsed time: 0.00 seconds
Elapsed time: 0.00 seconds
Elapsed time: 0.00 seconds
Elapsed time: 0.00 seconds
Elapsed time: 0.00 seconds
Elapsed time: 0.00 seconds
Elapsed time: 0.00 seconds
Elapsed time: 0.00 seconds
Elapsed time: 0.00 seconds
Elapsed time: 0.00 seconds
Elapsed time: 0.00 seconds
Elapsed time: 0.00 seconds
Elapsed time: 0.00 seconds
Elapsed time: 0.00 seconds
Elapsed time: 0.00 seconds
Elapsed time: 0.00 seconds
Elapsed time: 0.00 seconds
Elapsed time: 0.00 seconds
Elapsed time: 0.00 seconds
Elapsed time: 0.00 seconds
 
 ################
 ----------------
 CALL MACKIE F2PY
 ----------------
 ################
 
Elapsed time: 0.00 seconds
Elapsed time: 0.00 seconds
Elapsed time: 0.00 seconds
Elapsed time: 0.00 seconds
Elapsed time: 0.00 seconds
Elapsed time: 0.00 seconds
Elapsed time: 0.00 seconds
Elapsed time: 0.00 seconds
Elapsed time: 0.00 seconds
Elapsed time: 0.00 seconds
Elapsed time: 0.00 seconds
Elapsed time: 0.00 seconds
Elapsed time: 0.00 seconds
Elapsed time: 0.00 seconds
Elapsed time: 0.00 seconds
Elapsed time: 0.00 seconds
Elapsed time: 0.00 seconds
Elapsed time: 0.00 seconds
Elapsed time: 0.00 seconds
Elapsed time: 0.00 seconds
Elapsed time: 0.00 seconds
Elapsed time: 0.00 seconds
Elapsed time: 0.00 seconds
Elapsed time: 0.00 seconds
Elapsed time: 0.00 seconds
Elapsed time: 0.00 seconds
Elapsed time: 0.00 seconds
Elapsed time: 0.00 seconds
Elapsed time: 0.00 seconds
Elapsed time: 0.00 seconds
Elapsed time: 0.00 seconds
Elapsed time: 0.00 seconds
Elapsed time: 0.00 seconds
Elapsed time: 0.00 seconds
Elapsed time: 0.00 seconds
Elapsed time: 0.00 seconds
Elapsed time: 0.00 seconds
Elapsed time: 0.00 seconds
Elapsed time: 0.00 seconds
Elapsed time: 0.00 seconds
Elapsed time: 0.00 seconds
Elapsed time: 0.00 seconds
Elapsed time: 0.00 seconds
Elapsed time: 0.00 seconds
Elapsed time: 0.00 seconds
Elapsed time: 0.00 seconds
Elapsed time: 0.00 seconds
Elapsed time: 0.00 seconds
Elapsed time: 0.00 seconds
Elapsed time: 0.00 seconds
Elapsed time: 0.00 seconds
Elapsed time: 0.00 seconds
Elapsed time: 0.00 seconds
Elapsed time: 0.00 seconds
Elapsed time: 0.00 seconds
Elapsed time: 0.00 seconds
 
 ################
 ----------------
 CALL MACKIE F2PY
 ----------------
 ################
 
Elapsed time: 0.00 seconds
Elapsed time: 0.00 seconds
Elapsed time: 0.00 seconds
Elapsed time: 0.00 seconds
Elapsed time: 0.00 seconds
Elapsed time: 0.00 seconds
Elapsed time: 0.00 seconds
Elapsed time: 0.00 seconds
Elapsed time: 0.00 seconds
Elapsed time: 0.00 seconds
Elapsed time: 0.00 seconds
Elapsed time: 0.00 seconds
Elapsed time: 0.00 seconds
Elapsed time: 0.00 seconds
Elapsed time: 0.00 seconds
Elapsed time: 0.00 seconds
Elapsed time: 0.00 seconds
Elapsed time: 0.00 seconds
Elapsed time: 0.00 seconds
Elapsed time: 0.00 seconds
Elapsed time: 0.00 seconds
Elapsed time: 0.00 seconds
Elapsed time: 0.00 seconds
Elapsed time: 0.00 seconds
Elapsed time: 0.00 seconds
Elapsed time: 0.00 seconds
Elapsed time: 0.00 seconds
Elapsed time: 0.00 seconds
Elapsed time: 0.00 seconds
Elapsed time: 0.00 seconds
Elapsed time: 0.00 seconds
Elapsed time: 0.00 seconds
Elapsed time: 0.00 seconds
Elapsed time: 0.00 secondsElapsed time: 0.00 seconds
Elapsed time: 0.00 seconds
Elapsed time: 0.00 seconds
Elapsed time: 0.00 seconds
Elapsed time: 0.00 seconds
Elapsed time: 0.00 seconds
Elapsed time: 0.00 seconds
Elapsed time: 0.00 seconds
Elapsed time: 0.00 seconds
Elapsed time: 0.00 seconds
Elapsed time: 0.00 seconds
Elapsed time: 0.00 seconds
Elapsed time: 0.00 seconds
Elapsed time: 0.00 seconds
Elapsed time: 0.00 seconds
Elapsed time: 0.00 seconds
Elapsed time: 0.00 seconds
Elapsed time: 0.00 seconds
Elapsed time: 0.00 seconds
Elapsed time: 0.00 seconds
Elapsed time: 0.00 seconds
Elapsed time: 0.00 seconds
 
 ################
 ----------------
 CALL MACKIE F2PY
 ----------------
 ################
 
Elapsed time: 0.00 seconds
Elapsed time: 0.00 seconds
Elapsed time: 0.00 seconds
Elapsed time: 0.00 seconds
Elapsed time: 0.00 seconds
Elapsed time: 0.00 seconds
Elapsed time: 0.00 seconds
Elapsed time: 0.00 seconds
Elapsed time: 0.00 seconds
Elapsed time: 0.00 seconds
Elapsed time: 0.00 seconds
Elapsed time: 0.00 seconds
Elapsed time: 0.00 seconds
Elapsed time: 0.00 seconds
Elapsed time: 0.00 seconds
Elapsed time: 0.00 seconds
Elapsed time: 0.00 seconds
Elapsed time: 0.00 seconds
Elapsed time: 0.00 seconds
Elapsed time: 0.00 seconds

Elapsed time: 0.00 seconds
Elapsed time: 0.00 seconds
Elapsed time: 0.00 seconds
Elapsed time: 0.00 seconds
Elapsed time: 0.00 seconds
Elapsed time: 0.00 seconds
Elapsed time: 0.00 seconds
Elapsed time: 0.00 seconds
Elapsed time: 0.00 seconds
Elapsed time: 0.00 seconds
Elapsed time: 0.00 seconds
Elapsed time: 0.00 seconds
Elapsed time: 0.00 seconds
Elapsed time: 0.00 seconds
Elapsed time: 0.00 seconds
Elapsed time: 0.00 seconds
Elapsed time: 0.00 seconds
Elapsed time: 0.00 seconds
Elapsed time: 0.00 seconds
Elapsed time: 0.00 seconds
Elapsed time: 0.00 seconds
Elapsed time: 0.00 seconds
Elapsed time: 0.00 seconds
Elapsed time: 0.00 seconds
Elapsed time: 0.00 seconds
Elapsed time: 0.00 seconds
Elapsed time: 0.00 seconds
Elapsed time: 0.00 seconds
Elapsed time: 0.00 seconds
Elapsed time: 0.00 seconds
Elapsed time: 0.00 seconds
Elapsed time: 0.00 seconds
Elapsed time: 0.00 seconds
Elapsed time: 0.00 seconds
Elapsed time: 0.00 seconds
 
 ################
 ----------------
 CALL MACKIE F2PY
 ----------------
 ################
 
Elapsed time: 0.00 seconds
Elapsed time: 0.00 seconds
Elapsed time: 0.00 seconds
Elapsed time: 0.00 seconds
Elapsed time: 0.00 seconds
Elapsed time: 0.00 seconds
Elapsed time: 0.00 seconds
Elapsed time: 0.00 seconds
Elapsed time: 0.00 seconds
Elapsed time: 0.00 seconds
Elapsed time: 0.00 seconds
Elapsed time: 0.00 seconds
Elapsed time: 0.00 seconds
Elapsed time: 0.00 seconds
Elapsed time: 0.00 seconds
Elapsed time: 0.00 seconds
Elapsed time: 0.00 seconds
Elapsed time: 0.00 seconds
Elapsed time: 0.00 seconds
Elapsed time: 0.00 seconds
Elapsed time: 0.00 seconds
Elapsed time: 0.00 seconds
Elapsed time: 0.00 seconds
Elapsed time: 0.00 seconds
Elapsed time: 0.00 seconds
Elapsed time: 0.00 seconds
Elapsed time: 0.00 seconds
Elapsed time: 0.00 seconds
Elapsed time: 0.00 seconds
Elapsed time: 0.00 seconds
Elapsed time: 0.00 seconds
Elapsed time: 0.00 seconds
Elapsed time: 0.00 seconds
Elapsed time: 0.00 secondsElapsed time: 0.00 seconds
Elapsed time: 0.00 seconds
Elapsed time: 0.00 seconds
Elapsed time: 0.00 seconds
Elapsed time: 0.00 seconds
Elapsed time: 0.00 seconds
Elapsed time: 0.00 seconds
Elapsed time: 0.00 seconds
Elapsed time: 0.00 seconds
Elapsed time: 0.00 seconds
Elapsed time: 0.00 seconds
Elapsed time: 0.00 seconds
Elapsed time: 0.00 seconds
Elapsed time: 0.00 seconds
Elapsed time: 0.00 seconds
Elapsed time: 0.00 seconds
Elapsed time: 0.00 seconds
Elapsed time: 0.00 seconds
Elapsed time: 0.00 seconds
Elapsed time: 0.00 seconds
Elapsed time: 0.00 seconds
Elapsed time: 0.00 seconds
Elapsed time: 0.00 seconds
Elapsed time: 0.00 seconds
Elapsed time: 0.00 seconds
 
 ################
 ----------------
 CALL MACKIE F2PY
 ----------------
 ################
 
Elapsed time: 0.00 seconds
Elapsed time: 0.00 seconds
Elapsed time: 0.00 seconds
Elapsed time: 0.00 seconds
Elapsed time: 0.00 seconds
Elapsed time: 0.00 seconds
Elapsed time: 0.00 seconds
Elapsed time: 0.00 seconds
Elapsed time: 0.00 seconds
Elapsed time: 0.00 seconds
Elapsed time: 0.00 seconds
Elapsed time: 0.00 seconds
Elapsed time: 0.00 seconds
Elapsed time: 0.00 seconds
Elapsed time: 0.00 seconds
Elapsed time: 0.00 seconds
Elapsed time: 0.00 seconds
Elapsed time: 0.00 seconds
Elapsed time: 0.00 seconds
Elapsed time: 0.00 seconds

Elapsed time: 0.00 seconds
Elapsed time: 0.00 seconds
Elapsed time: 0.00 seconds
Elapsed time: 0.00 seconds
Elapsed time: 0.00 seconds
Elapsed time: 0.00 seconds
Elapsed time: 0.00 seconds
Elapsed time: 0.00 seconds
Elapsed time: 0.00 secondsElapsed time: 0.00 seconds
Elapsed time: 0.00 seconds
Elapsed time: 0.00 seconds
Elapsed time: 0.00 seconds
Elapsed time: 0.00 seconds
Elapsed time: 0.00 seconds
Elapsed time: 0.00 seconds
Elapsed time: 0.00 seconds
Elapsed time: 0.00 seconds
Elapsed time: 0.00 seconds
Elapsed time: 0.00 seconds
Elapsed time: 0.00 seconds
Elapsed time: 0.00 seconds
Elapsed time: 0.00 seconds
Elapsed time: 0.00 seconds
Elapsed time: 0.00 seconds
Elapsed time: 0.00 seconds
Elapsed time: 0.00 seconds
Elapsed time: 0.00 seconds
Elapsed time: 0.00 seconds
Elapsed time: 0.00 seconds
Elapsed time: 0.00 seconds
Elapsed time: 0.00 seconds
Elapsed time: 0.00 seconds
Elapsed time: 0.00 seconds
Elapsed time: 0.00 seconds
 
 ################
 ----------------
 CALL MACKIE F2PY
 ----------------
 ################
 
Elapsed time: 0.00 seconds
Elapsed time: 0.00 seconds
Elapsed time: 0.00 seconds
Elapsed time: 0.00 seconds
Elapsed time: 0.00 seconds
Elapsed time: 0.00 seconds
Elapsed time: 0.00 seconds
Elapsed time: 0.00 seconds
Elapsed time: 0.00 seconds
Elapsed time: 0.00 seconds
Elapsed time: 0.00 seconds
Elapsed time: 0.00 seconds
Elapsed time: 0.00 seconds
Elapsed time: 0.00 seconds
Elapsed time: 0.00 seconds
Elapsed time: 0.00 seconds
Elapsed time: 0.00 seconds
Elapsed time: 0.00 seconds
Elapsed time: 0.00 seconds

Elapsed time: 0.00 seconds
Elapsed time: 0.00 seconds
Elapsed time: 0.00 seconds
Elapsed time: 0.00 seconds
Elapsed time: 0.00 seconds
Elapsed time: 0.00 seconds
Elapsed time: 0.00 seconds
Elapsed time: 0.00 seconds
Elapsed time: 0.00 seconds
Elapsed time: 0.00 seconds
Elapsed time: 0.00 seconds
Elapsed time: 0.00 seconds
Elapsed time: 0.00 seconds
Elapsed time: 0.00 seconds
Elapsed time: 0.00 seconds
Elapsed time: 0.00 seconds
Elapsed time: 0.00 seconds
Elapsed time: 0.00 seconds
Elapsed time: 0.00 seconds
Elapsed time: 0.00 seconds
Elapsed time: 0.00 seconds
Elapsed time: 0.00 seconds
Elapsed time: 0.00 seconds
Elapsed time: 0.00 seconds
Elapsed time: 0.00 seconds
Elapsed time: 0.00 seconds
Elapsed time: 0.00 seconds
Elapsed time: 0.00 seconds
Elapsed time: 0.00 seconds
Elapsed time: 0.00 seconds
Elapsed time: 0.00 seconds
Elapsed time: 0.00 seconds
Elapsed time: 0.00 seconds
Elapsed time: 0.00 seconds
Elapsed time: 0.00 seconds
Elapsed time: 0.00 seconds
Elapsed time: 0.00 seconds
 
 ################
 ----------------
 CALL MACKIE F2PY
 ----------------
 ################
 
Elapsed time: 0.00 seconds
Elapsed time: 0.00 seconds
Elapsed time: 0.00 seconds
Elapsed time: 0.00 seconds
Elapsed time: 0.00 seconds
Elapsed time: 0.00 seconds
Elapsed time: 0.00 seconds
Elapsed time: 0.00 seconds
Elapsed time: 0.00 seconds
Elapsed time: 0.00 seconds
Elapsed time: 0.00 seconds
Elapsed time: 0.00 seconds
Elapsed time: 0.00 seconds
Elapsed time: 0.00 seconds
Elapsed time: 0.00 seconds
Elapsed time: 0.00 seconds
Elapsed time: 0.00 seconds
Elapsed time: 0.00 seconds
Elapsed time: 0.00 seconds
Elapsed time: 0.00 seconds
Elapsed time: 0.00 seconds
Elapsed time: 0.00 seconds
Elapsed time: 0.00 seconds
Elapsed time: 0.00 seconds
Elapsed time: 0.00 seconds
Elapsed time: 0.00 seconds
Elapsed time: 0.00 seconds
Elapsed time: 0.00 seconds
Elapsed time: 0.00 seconds
Elapsed time: 0.00 seconds
Elapsed time: 0.00 seconds
Elapsed time: 0.00 seconds
Elapsed time: 0.00 seconds
Elapsed time: 0.00 seconds
Elapsed time: 0.00 seconds
Elapsed time: 0.00 seconds
Elapsed time: 0.00 seconds
Elapsed time: 0.00 seconds
Elapsed time: 0.00 seconds
Elapsed time: 0.00 seconds
Elapsed time: 0.00 seconds
Elapsed time: 0.00 seconds
Elapsed time: 0.00 seconds
Elapsed time: 0.00 secondsElapsed time: 0.00 seconds
Elapsed time: 0.00 seconds
Elapsed time: 0.00 seconds
Elapsed time: 0.00 seconds
Elapsed time: 0.00 seconds
Elapsed time: 0.00 seconds
Elapsed time: 0.00 seconds
Elapsed time: 0.00 seconds
Elapsed time: 0.00 seconds
Elapsed time: 0.00 seconds
Elapsed time: 0.00 seconds
 
 ################
 ----------------
 CALL MACKIE F2PY
 ----------------
 ################
 
Elapsed time: 0.00 seconds
Elapsed time: 0.00 seconds
Elapsed time: 0.00 seconds
Elapsed time: 0.00 seconds
Elapsed time: 0.00 seconds
Elapsed time: 0.00 seconds
Elapsed time: 0.00 seconds
Elapsed time: 0.00 seconds
Elapsed time: 0.00 seconds
Elapsed time: 0.00 seconds
Elapsed time: 0.00 seconds
Elapsed time: 0.00 seconds
Elapsed time: 0.00 seconds
Elapsed time: 0.00 seconds
Elapsed time: 0.00 seconds
Elapsed time: 0.00 seconds
Elapsed time: 0.00 seconds
Elapsed time: 0.00 seconds
Elapsed time: 0.00 seconds
Elapsed time: 0.00 seconds

Elapsed time: 0.00 seconds
Elapsed time: 0.00 seconds
Elapsed time: 0.00 seconds
Elapsed time: 0.00 seconds
Elapsed time: 0.00 seconds
Elapsed time: 0.00 seconds
Elapsed time: 0.00 seconds
Elapsed time: 0.00 seconds
Elapsed time: 0.00 seconds
Elapsed time: 0.00 seconds
Elapsed time: 0.00 seconds
Elapsed time: 0.00 seconds
Elapsed time: 0.00 seconds
Elapsed time: 0.00 seconds
Elapsed time: 0.00 seconds
Elapsed time: 0.00 seconds
Elapsed time: 0.00 seconds
Elapsed time: 0.00 seconds
Elapsed time: 0.00 seconds
Elapsed time: 0.00 seconds
Elapsed time: 0.00 seconds
Elapsed time: 0.00 seconds
Elapsed time: 0.00 seconds
Elapsed time: 0.00 seconds
Elapsed time: 0.00 seconds
Elapsed time: 0.00 seconds
Elapsed time: 0.00 seconds
Elapsed time: 0.00 seconds
Elapsed time: 0.00 seconds
Elapsed time: 0.00 seconds
Elapsed time: 0.00 seconds
Elapsed time: 0.00 seconds
Elapsed time: 0.00 seconds
Elapsed time: 0.00 seconds
Elapsed time: 0.00 seconds
Elapsed time: 0.00 seconds
 
 ################
 ----------------
 CALL MACKIE F2PY
 ----------------
 ################
 
Elapsed time: 0.00 seconds
Elapsed time: 0.00 seconds
Elapsed time: 0.00 seconds
Elapsed time: 0.00 seconds
Elapsed time: 0.00 seconds
Elapsed time: 0.00 seconds
Elapsed time: 0.00 seconds
Elapsed time: 0.00 seconds
Elapsed time: 0.00 seconds
Elapsed time: 0.00 seconds
Elapsed time: 0.00 seconds
Elapsed time: 0.00 seconds
Elapsed time: 0.00 seconds
Elapsed time: 0.00 seconds
Elapsed time: 0.00 seconds
Elapsed time: 0.00 seconds
Elapsed time: 0.00 seconds
Elapsed time: 0.00 seconds
Elapsed time: 0.00 seconds
Elapsed time: 0.00 seconds
Elapsed time: 0.00 seconds
Elapsed time: 0.00 seconds
Elapsed time: 0.00 seconds
Elapsed time: 0.00 seconds
Elapsed time: 0.00 seconds
Elapsed time: 0.00 seconds
Elapsed time: 0.00 seconds
Elapsed time: 0.00 seconds
Elapsed time: 0.00 seconds
Elapsed time: 0.00 seconds
Elapsed time: 0.00 seconds
Elapsed time: 0.00 seconds
Elapsed time: 0.00 seconds
Elapsed time: 0.00 secondsElapsed time: 0.00 seconds
Elapsed time: 0.00 seconds
Elapsed time: 0.00 seconds
Elapsed time: 0.00 seconds
Elapsed time: 0.00 seconds
Elapsed time: 0.00 seconds
Elapsed time: 0.00 seconds
Elapsed time: 0.00 seconds
Elapsed time: 0.00 seconds
Elapsed time: 0.00 seconds
Elapsed time: 0.00 seconds
Elapsed time: 0.00 seconds
Elapsed time: 0.00 seconds
Elapsed time: 0.00 seconds
Elapsed time: 0.00 seconds
Elapsed time: 0.00 seconds
Elapsed time: 0.00 seconds
Elapsed time: 0.00 seconds
Elapsed time: 0.00 seconds
Elapsed time: 0.00 seconds
Elapsed time: 0.00 seconds
Elapsed time: 0.00 seconds
Elapsed time: 0.00 seconds
 
 ################
 ----------------
 CALL MACKIE F2PY
 ----------------
 ################
 
Elapsed time: 0.00 seconds
Elapsed time: 0.00 seconds
Elapsed time: 0.00 seconds
Elapsed time: 0.00 seconds
Elapsed time: 0.00 seconds
Elapsed time: 0.00 seconds
Elapsed time: 0.00 seconds
Elapsed time: 0.00 seconds
Elapsed time: 0.00 seconds
Elapsed time: 0.00 seconds
Elapsed time: 0.00 seconds
Elapsed time: 0.00 seconds
Elapsed time: 0.00 seconds
Elapsed time: 0.00 seconds
Elapsed time: 0.00 seconds
Elapsed time: 0.00 seconds
Elapsed time: 0.00 seconds
Elapsed time: 0.00 seconds
Elapsed time: 0.00 seconds

Elapsed time: 0.00 seconds
Elapsed time: 0.00 seconds
Elapsed time: 0.00 seconds
Elapsed time: 0.00 seconds
Elapsed time: 0.00 seconds
Elapsed time: 0.00 seconds
Elapsed time: 0.00 seconds
Elapsed time: 0.00 seconds
Elapsed time: 0.00 seconds
Elapsed time: 0.00 seconds
Elapsed time: 0.00 seconds
Elapsed time: 0.00 seconds
Elapsed time: 0.00 seconds
Elapsed time: 0.00 seconds
Elapsed time: 0.00 seconds
Elapsed time: 0.00 seconds
Elapsed time: 0.00 seconds
Elapsed time: 0.00 seconds
Elapsed time: 0.00 seconds
Elapsed time: 0.00 seconds
Elapsed time: 0.00 seconds
Elapsed time: 0.00 seconds
Elapsed time: 0.00 seconds
Elapsed time: 0.00 seconds
Elapsed time: 0.00 seconds
Elapsed time: 0.00 seconds
Elapsed time: 0.00 seconds
Elapsed time: 0.00 seconds
Elapsed time: 0.00 seconds
Elapsed time: 0.00 seconds
Elapsed time: 0.00 seconds
Elapsed time: 0.00 seconds
Elapsed time: 0.00 seconds
Elapsed time: 0.00 seconds
 
 ################
 ----------------
 CALL MACKIE F2PY
 ----------------
 ################
 
Elapsed time: 0.00 secondsElapsed time: 0.00 seconds
Elapsed time: 0.00 seconds
Elapsed time: 0.00 seconds
Elapsed time: 0.00 seconds

Elapsed time: 0.00 seconds
Elapsed time: 0.00 seconds
Elapsed time: 0.00 seconds
Elapsed time: 0.00 seconds
Elapsed time: 0.00 seconds
Elapsed time: 0.00 seconds
Elapsed time: 0.00 seconds
Elapsed time: 0.00 seconds
Elapsed time: 0.00 seconds
Elapsed time: 0.00 seconds
Elapsed time: 0.00 seconds
Elapsed time: 0.00 seconds
Elapsed time: 0.00 seconds
Elapsed time: 0.00 seconds
Elapsed time: 0.00 seconds
Elapsed time: 0.00 seconds
Elapsed time: 0.00 seconds
Elapsed time: 0.00 seconds
Elapsed time: 0.00 seconds
Elapsed time: 0.00 seconds
Elapsed time: 0.00 seconds
Elapsed time: 0.00 seconds
Elapsed time: 0.00 seconds
Elapsed time: 0.00 seconds
Elapsed time: 0.00 seconds
Elapsed time: 0.00 seconds
Elapsed time: 0.00 seconds
Elapsed time: 0.00 seconds
Elapsed time: 0.00 seconds
Elapsed time: 0.00 seconds
Elapsed time: 0.00 secondsElapsed time: 0.00 seconds
Elapsed time: 0.00 seconds
Elapsed time: 0.00 seconds
Elapsed time: 0.00 seconds
Elapsed time: 0.00 seconds
Elapsed time: 0.00 seconds
Elapsed time: 0.00 seconds
Elapsed time: 0.00 seconds
Elapsed time: 0.00 seconds
Elapsed time: 0.00 seconds
Elapsed time: 0.00 seconds
Elapsed time: 0.00 seconds
Elapsed time: 0.00 seconds
Elapsed time: 0.00 seconds
Elapsed time: 0.00 seconds
Elapsed time: 0.00 seconds
Elapsed time: 0.00 seconds
Elapsed time: 0.00 seconds
Elapsed time: 0.00 seconds
Elapsed time: 0.00 seconds
Elapsed time: 0.00 seconds
Elapsed time: 0.00 seconds
Elapsed time: 0.00 seconds
 
 ################
 ----------------
 CALL MACKIE F2PY
 ----------------
 ################
 
Elapsed time: 0.00 seconds
Elapsed time: 0.00 seconds
Elapsed time: 0.00 seconds
Elapsed time: 0.00 seconds
Elapsed time: 0.00 seconds
Elapsed time: 0.00 seconds
Elapsed time: 0.00 seconds
Elapsed time: 0.00 seconds
Elapsed time: 0.00 seconds
Elapsed time: 0.00 seconds
Elapsed time: 0.00 seconds
Elapsed time: 0.00 seconds
Elapsed time: 0.00 seconds
Elapsed time: 0.00 seconds
Elapsed time: 0.00 seconds
Elapsed time: 0.00 seconds
Elapsed time: 0.00 seconds
Elapsed time: 0.00 seconds
Elapsed time: 0.00 seconds

Elapsed time: 0.00 seconds
Elapsed time: 0.00 seconds
Elapsed time: 0.00 seconds
Elapsed time: 0.00 seconds
Elapsed time: 0.00 seconds
Elapsed time: 0.00 seconds
Elapsed time: 0.00 seconds
Elapsed time: 0.00 seconds
Elapsed time: 0.00 seconds
Elapsed time: 0.00 seconds
Elapsed time: 0.00 seconds
Elapsed time: 0.00 seconds
Elapsed time: 0.00 seconds
Elapsed time: 0.00 seconds
Elapsed time: 0.00 seconds
Elapsed time: 0.00 seconds
Elapsed time: 0.00 seconds
Elapsed time: 0.00 seconds
Elapsed time: 0.00 seconds
Elapsed time: 0.00 seconds
Elapsed time: 0.00 seconds
Elapsed time: 0.00 seconds
Elapsed time: 0.00 seconds
Elapsed time: 0.00 seconds
Elapsed time: 0.00 seconds
Elapsed time: 0.00 seconds
Elapsed time: 0.00 seconds
Elapsed time: 0.00 seconds
Elapsed time: 0.00 seconds
Elapsed time: 0.00 seconds
Elapsed time: 0.00 seconds
Elapsed time: 0.00 seconds
Elapsed time: 0.00 seconds
Elapsed time: 0.00 seconds
Elapsed time: 0.00 seconds
Elapsed time: 0.00 seconds
 
 ################
 ----------------
 CALL MACKIE F2PY
 ----------------
 ################
 
Elapsed time: 0.00 seconds
Elapsed time: 0.00 seconds
Elapsed time: 0.00 seconds
Elapsed time: 0.00 seconds
Elapsed time: 0.00 seconds
Elapsed time: 0.00 seconds
Elapsed time: 0.00 seconds
Elapsed time: 0.00 seconds
Elapsed time: 0.00 seconds
Elapsed time: 0.00 seconds
Elapsed time: 0.00 seconds
Elapsed time: 0.00 seconds
Elapsed time: 0.00 seconds
Elapsed time: 0.00 seconds
Elapsed time: 0.00 seconds
Elapsed time: 0.00 seconds
Elapsed time: 0.00 seconds
Elapsed time: 0.00 seconds
Elapsed time: 0.00 seconds
Elapsed time: 0.00 seconds
Elapsed time: 0.00 seconds
Elapsed time: 0.00 seconds
Elapsed time: 0.00 seconds
Elapsed time: 0.00 seconds
Elapsed time: 0.00 seconds
Elapsed time: 0.00 seconds
Elapsed time: 0.00 seconds
Elapsed time: 0.00 seconds
Elapsed time: 0.00 seconds
Elapsed time: 0.00 seconds
Elapsed time: 0.00 seconds
Elapsed time: 0.00 seconds
Elapsed time: 0.00 seconds
Elapsed time: 0.00 seconds
Elapsed time: 0.00 seconds
Elapsed time: 0.00 seconds
Elapsed time: 0.00 seconds
Elapsed time: 0.00 seconds
Elapsed time: 0.00 seconds
Elapsed time: 0.00 seconds
Elapsed time: 0.00 seconds
Elapsed time: 0.00 seconds
Elapsed time: 0.00 seconds
Elapsed time: 0.00 seconds
Elapsed time: 0.00 seconds
Elapsed time: 0.00 seconds
Elapsed time: 0.00 seconds
Elapsed time: 0.00 seconds
Elapsed time: 0.00 seconds
Elapsed time: 0.00 seconds
Elapsed time: 0.00 seconds
Elapsed time: 0.00 seconds
Elapsed time: 0.00 seconds
Elapsed time: 0.00 seconds
Elapsed time: 0.00 seconds
Elapsed time: 0.00 seconds
 
 ################
 ----------------
 CALL MACKIE F2PY
 ----------------
 ################
 
Elapsed time: 0.00 seconds
Elapsed time: 0.00 seconds
Elapsed time: 0.00 seconds
Elapsed time: 0.00 seconds
Elapsed time: 0.00 seconds
Elapsed time: 0.00 seconds
Elapsed time: 0.00 seconds
Elapsed time: 0.00 seconds
Elapsed time: 0.00 seconds
Elapsed time: 0.00 seconds
Elapsed time: 0.00 seconds
Elapsed time: 0.00 seconds
Elapsed time: 0.00 seconds
Elapsed time: 0.00 seconds
Elapsed time: 0.00 seconds
Elapsed time: 0.00 seconds
Elapsed time: 0.00 seconds
Elapsed time: 0.00 seconds
Elapsed time: 0.00 seconds
Elapsed time: 0.00 seconds
Elapsed time: 0.00 seconds
Elapsed time: 0.00 seconds
Elapsed time: 0.00 seconds
Elapsed time: 0.00 seconds
Elapsed time: 0.00 seconds
Elapsed time: 0.00 seconds
Elapsed time: 0.00 seconds
Elapsed time: 0.00 seconds
Elapsed time: 0.00 seconds
Elapsed time: 0.00 seconds
Elapsed time: 0.00 seconds
Elapsed time: 0.00 seconds
Elapsed time: 0.00 secondsElapsed time: 0.00 seconds
Elapsed time: 0.00 seconds
Elapsed time: 0.00 seconds
Elapsed time: 0.00 seconds
Elapsed time: 0.00 seconds
Elapsed time: 0.00 seconds
Elapsed time: 0.00 seconds
Elapsed time: 0.00 seconds
Elapsed time: 0.00 seconds
Elapsed time: 0.00 seconds
Elapsed time: 0.00 seconds
Elapsed time: 0.00 seconds
Elapsed time: 0.00 seconds
Elapsed time: 0.00 seconds
Elapsed time: 0.00 seconds
Elapsed time: 0.00 seconds
Elapsed time: 0.00 seconds
Elapsed time: 0.00 seconds
Elapsed time: 0.00 seconds
Elapsed time: 0.00 seconds
Elapsed time: 0.00 seconds
Elapsed time: 0.00 seconds
Elapsed time: 0.00 seconds
Elapsed time: 0.00 seconds
 
 ################
 ----------------
 CALL MACKIE F2PY
 ----------------
 ################
 
Elapsed time: 0.00 seconds
Elapsed time: 0.00 seconds
Elapsed time: 0.00 seconds
Elapsed time: 0.00 seconds
Elapsed time: 0.00 seconds
Elapsed time: 0.00 seconds
Elapsed time: 0.00 seconds
Elapsed time: 0.00 seconds
Elapsed time: 0.00 seconds
Elapsed time: 0.00 seconds
Elapsed time: 0.00 seconds
Elapsed time: 0.00 seconds
Elapsed time: 0.00 seconds
Elapsed time: 0.00 seconds
Elapsed time: 0.00 seconds
Elapsed time: 0.00 seconds
Elapsed time: 0.00 seconds
Elapsed time: 0.00 seconds
Elapsed time: 0.00 seconds

Elapsed time: 0.00 seconds
Elapsed time: 0.00 seconds
Elapsed time: 0.00 seconds
Elapsed time: 0.00 seconds
Elapsed time: 0.00 seconds
Elapsed time: 0.00 seconds
Elapsed time: 0.00 seconds
Elapsed time: 0.00 seconds
Elapsed time: 0.00 seconds
Elapsed time: 0.00 seconds
Elapsed time: 0.00 seconds
Elapsed time: 0.00 seconds
Elapsed time: 0.00 seconds
Elapsed time: 0.00 seconds
Elapsed time: 0.00 seconds
Elapsed time: 0.00 seconds
Elapsed time: 0.00 seconds
Elapsed time: 0.00 seconds
Elapsed time: 0.00 seconds
Elapsed time: 0.00 seconds
Elapsed time: 0.00 seconds
Elapsed time: 0.00 seconds
Elapsed time: 0.00 seconds
Elapsed time: 0.00 seconds
Elapsed time: 0.00 seconds
Elapsed time: 0.00 seconds
Elapsed time: 0.00 seconds
Elapsed time: 0.00 seconds
Elapsed time: 0.00 seconds
Elapsed time: 0.00 seconds
Elapsed time: 0.00 seconds
Elapsed time: 0.00 seconds
Elapsed time: 0.00 seconds
Elapsed time: 0.00 seconds
Elapsed time: 0.00 seconds
Elapsed time: 0.00 seconds
Elapsed time: 0.00 seconds
Elapsed time: 0.00 seconds
 
 ################
 ----------------
 CALL MACKIE F2PY
 ----------------
 ################
 
Elapsed time: 0.00 seconds
Elapsed time: 0.00 seconds
Elapsed time: 0.00 seconds
Elapsed time: 0.00 seconds
Elapsed time: 0.00 seconds
Elapsed time: 0.00 seconds
Elapsed time: 0.00 seconds
Elapsed time: 0.00 seconds
Elapsed time: 0.00 seconds
Elapsed time: 0.00 seconds
Elapsed time: 0.00 seconds
Elapsed time: 0.00 seconds
Elapsed time: 0.00 seconds
Elapsed time: 0.00 seconds
Elapsed time: 0.00 seconds
Elapsed time: 0.00 seconds
Elapsed time: 0.00 seconds
Elapsed time: 0.00 seconds
Elapsed time: 0.00 seconds
Elapsed time: 0.00 seconds
Elapsed time: 0.00 seconds
Elapsed time: 0.00 seconds
Elapsed time: 0.00 seconds
Elapsed time: 0.00 seconds
Elapsed time: 0.00 seconds
Elapsed time: 0.00 seconds
Elapsed time: 0.00 seconds
Elapsed time: 0.00 seconds
Elapsed time: 0.00 seconds
Elapsed time: 0.00 seconds
Elapsed time: 0.00 seconds
Elapsed time: 0.00 seconds
Elapsed time: 0.00 seconds
Elapsed time: 0.00 seconds
Elapsed time: 0.00 seconds
Elapsed time: 0.00 seconds
Elapsed time: 0.00 seconds
Elapsed time: 0.00 seconds
Elapsed time: 0.00 seconds
Elapsed time: 0.00 seconds
Elapsed time: 0.00 seconds
Elapsed time: 0.00 seconds
Elapsed time: 0.00 seconds
Elapsed time: 0.00 seconds
Elapsed time: 0.00 seconds
Elapsed time: 0.00 seconds
Elapsed time: 0.00 seconds
Elapsed time: 0.00 seconds
Elapsed time: 0.00 seconds
Elapsed time: 0.00 seconds
Elapsed time: 0.00 seconds
Elapsed time: 0.00 seconds
Elapsed time: 0.00 seconds
Elapsed time: 0.00 seconds
Elapsed time: 0.00 seconds
 
 ################
 ----------------
 CALL MACKIE F2PY
 ----------------
 ################
 
Elapsed time: 0.00 seconds
Elapsed time: 0.00 seconds
Elapsed time: 0.00 seconds
Elapsed time: 0.00 seconds
Elapsed time: 0.00 seconds
Elapsed time: 0.00 seconds
Elapsed time: 0.00 seconds
Elapsed time: 0.00 seconds
Elapsed time: 0.00 seconds
Elapsed time: 0.00 seconds
Elapsed time: 0.00 seconds
Elapsed time: 0.00 seconds
Elapsed time: 0.00 seconds
Elapsed time: 0.00 seconds
Elapsed time: 0.00 seconds
Elapsed time: 0.00 seconds
Elapsed time: 0.00 seconds
Elapsed time: 0.00 seconds
Elapsed time: 0.00 seconds
Elapsed time: 0.00 seconds
Elapsed time: 0.00 seconds
Elapsed time: 0.00 seconds
Elapsed time: 0.00 seconds
Elapsed time: 0.00 seconds
Elapsed time: 0.00 seconds
Elapsed time: 0.00 seconds
Elapsed time: 0.00 seconds
Elapsed time: 0.00 seconds
Elapsed time: 0.00 seconds
Elapsed time: 0.00 seconds
Elapsed time: 0.00 seconds
Elapsed time: 0.00 seconds
Elapsed time: 0.00 seconds
Elapsed time: 0.00 seconds
Elapsed time: 0.00 seconds
Elapsed time: 0.00 seconds
Elapsed time: 0.00 seconds
Elapsed time: 0.00 seconds
Elapsed time: 0.00 seconds
Elapsed time: 0.00 seconds
Elapsed time: 0.00 seconds
Elapsed time: 0.00 seconds
Elapsed time: 0.00 seconds
Elapsed time: 0.00 seconds
Elapsed time: 0.00 seconds
Elapsed time: 0.00 seconds
Elapsed time: 0.00 seconds
Elapsed time: 0.00 seconds
Elapsed time: 0.00 seconds
Elapsed time: 0.00 seconds
Elapsed time: 0.00 seconds
Elapsed time: 0.00 seconds
Elapsed time: 0.00 seconds
Elapsed time: 0.00 seconds
Elapsed time: 0.00 seconds
Elapsed time: 0.00 seconds
 
 ################
 ----------------
 CALL MACKIE F2PY
 ----------------
 ################
 
Elapsed time: 0.00 seconds
Elapsed time: 0.00 seconds
Elapsed time: 0.00 seconds
Elapsed time: 0.00 seconds
Elapsed time: 0.00 seconds
Elapsed time: 0.00 seconds
Elapsed time: 0.00 seconds
Elapsed time: 0.00 seconds
Elapsed time: 0.00 seconds
Elapsed time: 0.00 seconds
Elapsed time: 0.00 seconds
Elapsed time: 0.00 seconds
Elapsed time: 0.00 seconds
Elapsed time: 0.00 seconds
Elapsed time: 0.00 seconds
Elapsed time: 0.00 seconds
Elapsed time: 0.00 seconds
Elapsed time: 0.00 seconds
Elapsed time: 0.00 seconds
Elapsed time: 0.00 seconds
Elapsed time: 0.00 seconds
Elapsed time: 0.00 seconds
Elapsed time: 0.00 seconds
Elapsed time: 0.00 seconds
Elapsed time: 0.00 seconds
Elapsed time: 0.00 seconds
Elapsed time: 0.00 seconds
Elapsed time: 0.00 seconds
Elapsed time: 0.00 seconds
Elapsed time: 0.00 seconds
Elapsed time: 0.00 seconds
Elapsed time: 0.00 seconds
Elapsed time: 0.00 seconds
Elapsed time: 0.00 seconds
Elapsed time: 0.00 seconds
Elapsed time: 0.00 seconds
Elapsed time: 0.00 seconds
Elapsed time: 0.00 seconds
Elapsed time: 0.00 seconds
Elapsed time: 0.00 seconds
Elapsed time: 0.00 seconds
Elapsed time: 0.00 seconds
Elapsed time: 0.00 seconds
Elapsed time: 0.00 seconds
Elapsed time: 0.00 seconds
Elapsed time: 0.00 seconds
Elapsed time: 0.00 seconds
Elapsed time: 0.00 seconds
Elapsed time: 0.00 seconds
Elapsed time: 0.00 seconds
Elapsed time: 0.00 seconds
Elapsed time: 0.00 seconds
Elapsed time: 0.00 seconds
Elapsed time: 0.00 seconds
Elapsed time: 0.00 seconds
Elapsed time: 0.00 seconds
Elapsed time: 0.00 seconds
Elapsed time: 0.00 seconds
Elapsed time: 0.00 seconds
Elapsed time: 0.00 seconds
 
 ################
 ----------------
 CALL MACKIE F2PY
 ----------------
 ################
 
Elapsed time: 0.00 seconds
Elapsed time: 0.00 seconds
Elapsed time: 0.00 seconds
Elapsed time: 0.00 seconds
Elapsed time: 0.00 seconds
Elapsed time: 0.00 seconds
Elapsed time: 0.00 seconds
Elapsed time: 0.00 seconds
Elapsed time: 0.00 seconds
Elapsed time: 0.00 seconds
Elapsed time: 0.00 seconds
Elapsed time: 0.00 seconds
Elapsed time: 0.00 seconds
Elapsed time: 0.00 seconds
Elapsed time: 0.00 seconds
Elapsed time: 0.00 seconds
Elapsed time: 0.00 seconds
Elapsed time: 0.00 seconds
Elapsed time: 0.00 seconds
Elapsed time: 0.00 seconds
Elapsed time: 0.00 seconds
Elapsed time: 0.00 seconds
Elapsed time: 0.00 seconds
Elapsed time: 0.00 seconds
Elapsed time: 0.00 seconds
Elapsed time: 0.00 seconds
Elapsed time: 0.00 seconds
Elapsed time: 0.00 seconds
Elapsed time: 0.00 seconds
Elapsed time: 0.00 seconds
Elapsed time: 0.00 seconds
Elapsed time: 0.00 seconds
Elapsed time: 0.00 seconds
Elapsed time: 0.00 seconds
Elapsed time: 0.00 seconds
Elapsed time: 0.00 seconds
Elapsed time: 0.00 seconds
Elapsed time: 0.00 seconds
Elapsed time: 0.00 seconds
Elapsed time: 0.00 seconds
Elapsed time: 0.00 seconds
Elapsed time: 0.00 seconds
Elapsed time: 0.00 seconds
Elapsed time: 0.00 seconds
Elapsed time: 0.00 seconds
Elapsed time: 0.00 seconds
Elapsed time: 0.00 seconds
Elapsed time: 0.00 seconds
Elapsed time: 0.00 seconds
Elapsed time: 0.00 seconds
Elapsed time: 0.00 seconds
Elapsed time: 0.00 seconds
Elapsed time: 0.00 seconds
Elapsed time: 0.00 seconds
Elapsed time: 0.00 seconds
 
 ################
 ----------------
 CALL MACKIE F2PY
 ----------------
 ################
 
Elapsed time: 0.00 seconds
Elapsed time: 0.00 seconds
Elapsed time: 0.00 seconds
Elapsed time: 0.00 seconds
Elapsed time: 0.00 seconds
Elapsed time: 0.00 seconds
Elapsed time: 0.00 seconds
Elapsed time: 0.00 seconds
Elapsed time: 0.00 seconds
Elapsed time: 0.00 seconds
Elapsed time: 0.00 seconds
Elapsed time: 0.00 seconds
Elapsed time: 0.00 seconds
Elapsed time: 0.00 seconds
Elapsed time: 0.00 seconds
Elapsed time: 0.00 seconds
Elapsed time: 0.00 seconds
Elapsed time: 0.00 seconds
Elapsed time: 0.00 seconds
Elapsed time: 0.00 seconds
Elapsed time: 0.00 seconds
Elapsed time: 0.00 seconds
Elapsed time: 0.00 seconds
Elapsed time: 0.00 seconds
Elapsed time: 0.00 seconds
Elapsed time: 0.00 seconds
Elapsed time: 0.00 seconds
Elapsed time: 0.00 seconds
Elapsed time: 0.00 seconds
Elapsed time: 0.00 seconds
Elapsed time: 0.00 seconds
Elapsed time: 0.00 seconds
Elapsed time: 0.00 seconds
Elapsed time: 0.00 seconds
Elapsed time: 0.00 seconds
Elapsed time: 0.00 seconds
Elapsed time: 0.00 seconds
Elapsed time: 0.00 seconds
Elapsed time: 0.00 seconds
Elapsed time: 0.00 seconds
Elapsed time: 0.00 seconds
Elapsed time: 0.00 seconds
Elapsed time: 0.00 seconds
Elapsed time: 0.00 seconds
Elapsed time: 0.00 seconds
Elapsed time: 0.00 seconds
Elapsed time: 0.00 seconds
Elapsed time: 0.00 seconds
Elapsed time: 0.00 seconds
Elapsed time: 0.00 seconds
Elapsed time: 0.00 seconds
Elapsed time: 0.00 seconds
Elapsed time: 0.00 seconds
Elapsed time: 0.00 seconds
Elapsed time: 0.00 seconds
Elapsed time: 0.00 seconds
Elapsed time: 0.00 seconds
 
 ################
 ----------------
 CALL MACKIE F2PY
 ----------------
 ################
 
Elapsed time: 0.00 seconds
Elapsed time: 0.00 seconds
Elapsed time: 0.00 seconds
Elapsed time: 0.00 seconds
Elapsed time: 0.00 seconds
Elapsed time: 0.00 seconds
Elapsed time: 0.00 seconds
Elapsed time: 0.00 seconds
Elapsed time: 0.00 seconds
Elapsed time: 0.00 seconds
Elapsed time: 0.00 seconds
Elapsed time: 0.00 seconds
Elapsed time: 0.00 seconds
Elapsed time: 0.00 seconds
Elapsed time: 0.00 seconds
Elapsed time: 0.00 seconds
Elapsed time: 0.00 seconds
Elapsed time: 0.00 seconds
Elapsed time: 0.00 seconds
Elapsed time: 0.00 seconds
Elapsed time: 0.00 seconds
Elapsed time: 0.00 seconds
Elapsed time: 0.00 seconds
Elapsed time: 0.00 seconds
Elapsed time: 0.00 seconds
Elapsed time: 0.00 seconds
Elapsed time: 0.00 seconds
Elapsed time: 0.00 seconds
Elapsed time: 0.00 seconds
Elapsed time: 0.00 seconds
Elapsed time: 0.00 seconds
Elapsed time: 0.00 seconds
Elapsed time: 0.00 seconds
Elapsed time: 0.00 seconds
Elapsed time: 0.00 seconds
Elapsed time: 0.00 seconds
Elapsed time: 0.00 seconds
Elapsed time: 0.00 seconds
Elapsed time: 0.00 seconds
Elapsed time: 0.00 seconds
Elapsed time: 0.00 seconds
Elapsed time: 0.00 seconds
Elapsed time: 0.00 seconds
Elapsed time: 0.00 seconds
Elapsed time: 0.00 seconds
Elapsed time: 0.00 seconds
Elapsed time: 0.00 seconds
Elapsed time: 0.00 seconds
Elapsed time: 0.00 seconds
Elapsed time: 0.00 seconds
Elapsed time: 0.00 seconds
Elapsed time: 0.00 seconds
Elapsed time: 0.00 seconds
 
 ################
 ----------------
 CALL MACKIE F2PY
 ----------------
 ################
 
Elapsed time: 0.00 seconds
Elapsed time: 0.00 seconds
Elapsed time: 0.00 seconds
Elapsed time: 0.00 seconds
Elapsed time: 0.00 seconds
Elapsed time: 0.00 seconds
Elapsed time: 0.00 seconds
Elapsed time: 0.00 seconds
Elapsed time: 0.00 seconds
Elapsed time: 0.00 seconds
Elapsed time: 0.00 seconds
Elapsed time: 0.00 seconds
Elapsed time: 0.00 seconds
Elapsed time: 0.00 seconds
Elapsed time: 0.00 seconds
Elapsed time: 0.00 seconds
Elapsed time: 0.00 seconds
Elapsed time: 0.00 seconds
Elapsed time: 0.00 seconds
Elapsed time: 0.00 seconds
Elapsed time: 0.00 seconds
Elapsed time: 0.00 seconds
Elapsed time: 0.00 seconds
Elapsed time: 0.00 seconds
Elapsed time: 0.00 seconds
Elapsed time: 0.00 seconds
Elapsed time: 0.00 seconds
Elapsed time: 0.00 seconds
Elapsed time: 0.00 seconds
Elapsed time: 0.00 seconds
Elapsed time: 0.00 seconds
Elapsed time: 0.00 seconds
Elapsed time: 0.00 seconds
Elapsed time: 0.00 seconds
Elapsed time: 0.00 seconds
Elapsed time: 0.00 seconds
Elapsed time: 0.00 seconds
Elapsed time: 0.00 seconds
Elapsed time: 0.00 seconds
Elapsed time: 0.00 seconds
Elapsed time: 0.00 seconds
Elapsed time: 0.00 seconds
Elapsed time: 0.00 seconds
Elapsed time: 0.00 seconds
Elapsed time: 0.00 seconds
Elapsed time: 0.00 seconds
Elapsed time: 0.00 seconds
Elapsed time: 0.00 seconds
Elapsed time: 0.00 seconds
Elapsed time: 0.00 seconds
Elapsed time: 0.00 seconds
Elapsed time: 0.00 seconds
Elapsed time: 0.00 seconds
Elapsed time: 0.00 seconds
Elapsed time: 0.00 seconds
Elapsed time: 0.00 seconds
Elapsed time: 0.00 seconds
Elapsed time: 0.00 seconds
 
 ################
 ----------------
 CALL MACKIE F2PY
 ----------------
 ################
 
Elapsed time: 0.00 seconds
Elapsed time: 0.00 seconds
Elapsed time: 0.00 seconds
Elapsed time: 0.00 seconds
Elapsed time: 0.00 seconds
Elapsed time: 0.00 seconds
Elapsed time: 0.00 seconds
Elapsed time: 0.00 seconds
Elapsed time: 0.00 seconds
Elapsed time: 0.00 seconds
Elapsed time: 0.00 seconds
Elapsed time: 0.00 seconds
Elapsed time: 0.00 seconds
Elapsed time: 0.00 seconds
Elapsed time: 0.00 seconds
Elapsed time: 0.00 seconds
Elapsed time: 0.00 seconds
Elapsed time: 0.00 seconds
Elapsed time: 0.00 seconds
Elapsed time: 0.00 seconds
Elapsed time: 0.00 seconds
Elapsed time: 0.00 seconds
Elapsed time: 0.00 seconds
Elapsed time: 0.00 seconds
Elapsed time: 0.00 seconds
Elapsed time: 0.00 seconds
Elapsed time: 0.00 seconds
Elapsed time: 0.00 seconds
Elapsed time: 0.00 seconds
Elapsed time: 0.00 seconds
Elapsed time: 0.00 seconds
Elapsed time: 0.00 seconds
Elapsed time: 0.00 seconds
Elapsed time: 0.00 seconds
Elapsed time: 0.00 seconds
Elapsed time: 0.00 seconds
Elapsed time: 0.00 seconds
Elapsed time: 0.00 seconds
Elapsed time: 0.00 seconds
Elapsed time: 0.00 seconds
Elapsed time: 0.00 seconds
Elapsed time: 0.00 seconds
Elapsed time: 0.00 seconds
Elapsed time: 0.00 seconds
Elapsed time: 0.00 seconds
Elapsed time: 0.00 seconds
Elapsed time: 0.00 seconds
Elapsed time: 0.00 seconds
Elapsed time: 0.00 seconds
Elapsed time: 0.00 seconds
Elapsed time: 0.00 seconds
Elapsed time: 0.00 seconds
 
 ################
 ----------------
 CALL MACKIE F2PY
 ----------------
 ################
 
Elapsed time: 0.00 seconds
Elapsed time: 0.00 seconds
Elapsed time: 0.00 seconds
Elapsed time: 0.00 seconds
Elapsed time: 0.00 seconds
Elapsed time: 0.00 seconds
Elapsed time: 0.00 seconds
Elapsed time: 0.00 seconds
Elapsed time: 0.00 seconds
Elapsed time: 0.00 seconds
Elapsed time: 0.00 seconds
Elapsed time: 0.00 seconds
Elapsed time: 0.00 seconds
Elapsed time: 0.00 seconds
Elapsed time: 0.00 seconds
Elapsed time: 0.00 seconds
Elapsed time: 0.00 seconds
Elapsed time: 0.00 seconds
Elapsed time: 0.00 seconds
Elapsed time: 0.00 seconds
Elapsed time: 0.00 seconds
Elapsed time: 0.00 seconds
Elapsed time: 0.00 seconds
Elapsed time: 0.00 seconds
Elapsed time: 0.00 seconds
Elapsed time: 0.00 seconds
Elapsed time: 0.00 seconds
Elapsed time: 0.00 seconds
Elapsed time: 0.00 seconds
Elapsed time: 0.00 seconds
Elapsed time: 0.00 seconds
Elapsed time: 0.00 seconds
Elapsed time: 0.00 seconds
Elapsed time: 0.00 seconds
Elapsed time: 0.00 seconds
Elapsed time: 0.00 seconds
Elapsed time: 0.00 seconds
Elapsed time: 0.00 seconds
Elapsed time: 0.00 seconds
Elapsed time: 0.00 seconds
Elapsed time: 0.00 seconds
Elapsed time: 0.00 seconds
Elapsed time: 0.00 seconds
Elapsed time: 0.00 seconds
Elapsed time: 0.00 seconds
Elapsed time: 0.00 seconds
Elapsed time: 0.00 seconds
Elapsed time: 0.00 seconds
Elapsed time: 0.00 seconds
Elapsed time: 0.00 seconds
Elapsed time: 0.00 seconds
Elapsed time: 0.00 seconds
Elapsed time: 0.00 seconds
Elapsed time: 0.00 seconds
Elapsed time: 0.00 seconds
Elapsed time: 0.00 seconds
 
 ################
 ----------------
 CALL MACKIE F2PY
 ----------------
 ################
 
Elapsed time: 0.00 seconds
Elapsed time: 0.00 seconds
Elapsed time: 0.00 seconds
Elapsed time: 0.00 seconds
Elapsed time: 0.00 seconds
Elapsed time: 0.00 seconds
Elapsed time: 0.00 seconds
Elapsed time: 0.00 seconds
Elapsed time: 0.00 seconds
Elapsed time: 0.00 seconds
Elapsed time: 0.00 seconds
Elapsed time: 0.00 seconds
Elapsed time: 0.00 seconds
Elapsed time: 0.00 seconds
Elapsed time: 0.00 seconds
Elapsed time: 0.00 seconds
Elapsed time: 0.00 seconds
Elapsed time: 0.00 seconds
Elapsed time: 0.00 seconds
Elapsed time: 0.00 seconds
Elapsed time: 0.00 seconds
Elapsed time: 0.00 seconds
Elapsed time: 0.00 seconds
Elapsed time: 0.00 seconds
Elapsed time: 0.00 seconds
Elapsed time: 0.00 seconds
Elapsed time: 0.00 seconds
Elapsed time: 0.00 seconds
Elapsed time: 0.00 seconds
Elapsed time: 0.00 seconds
Elapsed time: 0.00 seconds
Elapsed time: 0.00 seconds
Elapsed time: 0.00 seconds
Elapsed time: 0.00 seconds
Elapsed time: 0.00 seconds
Elapsed time: 0.00 seconds
Elapsed time: 0.00 seconds
Elapsed time: 0.00 seconds
Elapsed time: 0.00 seconds
Elapsed time: 0.00 seconds
Elapsed time: 0.00 seconds
Elapsed time: 0.00 seconds
Elapsed time: 0.00 seconds
Elapsed time: 0.00 seconds
Elapsed time: 0.00 seconds
Elapsed time: 0.00 seconds
Elapsed time: 0.00 seconds
Elapsed time: 0.00 seconds
Elapsed time: 0.00 seconds
Elapsed time: 0.00 seconds
Elapsed time: 0.00 seconds
Elapsed time: 0.00 seconds
Elapsed time: 0.00 seconds
Elapsed time: 0.00 seconds
Elapsed time: 0.00 seconds
Elapsed time: 0.00 seconds
Elapsed time: 0.00 seconds
 
 ################
 ----------------
 CALL MACKIE F2PY
 ----------------
 ################
 
Elapsed time: 0.00 seconds
Elapsed time: 0.00 seconds
Elapsed time: 0.00 seconds
Elapsed time: 0.00 seconds
Elapsed time: 0.00 seconds
Elapsed time: 0.00 seconds
Elapsed time: 0.00 seconds
Elapsed time: 0.00 seconds
Elapsed time: 0.00 seconds
Elapsed time: 0.00 seconds
Elapsed time: 0.00 seconds
Elapsed time: 0.00 seconds
Elapsed time: 0.00 seconds
Elapsed time: 0.00 seconds
Elapsed time: 0.00 seconds
Elapsed time: 0.00 seconds
Elapsed time: 0.00 seconds
Elapsed time: 0.00 seconds
Elapsed time: 0.00 seconds
Elapsed time: 0.00 seconds
Elapsed time: 0.00 seconds
Elapsed time: 0.00 seconds
Elapsed time: 0.00 seconds
Elapsed time: 0.00 seconds
Elapsed time: 0.00 seconds
Elapsed time: 0.00 seconds
Elapsed time: 0.00 seconds
Elapsed time: 0.00 seconds
Elapsed time: 0.00 seconds
Elapsed time: 0.00 seconds
Elapsed time: 0.00 seconds
Elapsed time: 0.00 seconds
Elapsed time: 0.00 seconds
Elapsed time: 0.00 seconds
Elapsed time: 0.00 seconds
Elapsed time: 0.00 seconds
Elapsed time: 0.00 seconds
Elapsed time: 0.00 seconds
Elapsed time: 0.00 seconds
Elapsed time: 0.00 seconds
Elapsed time: 0.00 seconds
Elapsed time: 0.00 seconds
Elapsed time: 0.00 seconds
Elapsed time: 0.00 seconds
Elapsed time: 0.00 seconds
Elapsed time: 0.00 seconds
Elapsed time: 0.00 seconds
Elapsed time: 0.00 seconds
Elapsed time: 0.00 seconds
Elapsed time: 0.00 seconds
Elapsed time: 0.00 seconds
Elapsed time: 0.00 seconds
Elapsed time: 0.00 seconds
Elapsed time: 0.00 seconds
 
 ################
 ----------------
 CALL MACKIE F2PY
 ----------------
 ################
 
Elapsed time: 0.00 seconds
Elapsed time: 0.00 seconds
Elapsed time: 0.00 seconds
Elapsed time: 0.00 seconds
Elapsed time: 0.00 seconds
Elapsed time: 0.00 seconds
Elapsed time: 0.00 seconds
Elapsed time: 0.00 seconds
Elapsed time: 0.00 seconds
Elapsed time: 0.00 seconds
Elapsed time: 0.00 seconds
Elapsed time: 0.00 seconds
Elapsed time: 0.00 seconds
Elapsed time: 0.00 seconds
Elapsed time: 0.00 seconds
Elapsed time: 0.00 seconds
Elapsed time: 0.00 seconds
Elapsed time: 0.00 seconds
Elapsed time: 0.00 seconds
Elapsed time: 0.00 seconds
Elapsed time: 0.00 seconds
Elapsed time: 0.00 seconds
Elapsed time: 0.00 seconds
Elapsed time: 0.00 seconds
Elapsed time: 0.00 seconds
Elapsed time: 0.00 seconds
Elapsed time: 0.00 seconds
Elapsed time: 0.00 seconds
Elapsed time: 0.00 seconds
Elapsed time: 0.00 seconds
Elapsed time: 0.00 seconds
Elapsed time: 0.00 seconds
Elapsed time: 0.00 seconds
Elapsed time: 0.00 seconds
Elapsed time: 0.00 seconds
Elapsed time: 0.00 seconds
Elapsed time: 0.00 seconds
Elapsed time: 0.00 seconds
Elapsed time: 0.00 seconds
Elapsed time: 0.00 seconds
Elapsed time: 0.00 seconds
Elapsed time: 0.00 seconds
Elapsed time: 0.00 seconds
Elapsed time: 0.00 seconds
Elapsed time: 0.00 seconds
Elapsed time: 0.00 seconds
Elapsed time: 0.00 seconds
Elapsed time: 0.00 seconds
Elapsed time: 0.00 seconds
Elapsed time: 0.00 seconds
Elapsed time: 0.00 seconds
 
 ################
 ----------------
 CALL MACKIE F2PY
 ----------------
 ################
 
Elapsed time: 0.00 seconds
Elapsed time: 0.00 seconds
Elapsed time: 0.00 seconds
Elapsed time: 0.00 seconds
Elapsed time: 0.00 seconds
Elapsed time: 0.00 seconds
Elapsed time: 0.00 seconds
Elapsed time: 0.00 seconds
Elapsed time: 0.00 seconds
Elapsed time: 0.00 seconds
Elapsed time: 0.00 seconds
Elapsed time: 0.00 seconds
Elapsed time: 0.00 seconds
Elapsed time: 0.00 seconds
Elapsed time: 0.00 seconds
Elapsed time: 0.00 seconds
Elapsed time: 0.00 seconds
Elapsed time: 0.00 seconds
Elapsed time: 0.00 seconds
Elapsed time: 0.00 seconds
Elapsed time: 0.00 seconds
Elapsed time: 0.00 seconds
Elapsed time: 0.00 seconds
Elapsed time: 0.00 seconds
Elapsed time: 0.00 seconds
Elapsed time: 0.00 seconds
Elapsed time: 0.00 seconds
Elapsed time: 0.00 seconds
Elapsed time: 0.00 seconds
Elapsed time: 0.00 seconds
Elapsed time: 0.00 seconds
Elapsed time: 0.00 seconds
Elapsed time: 0.00 seconds
Elapsed time: 0.00 seconds
Elapsed time: 0.00 seconds
Elapsed time: 0.00 seconds
Elapsed time: 0.00 seconds
Elapsed time: 0.00 seconds
Elapsed time: 0.00 seconds
Elapsed time: 0.00 seconds
Elapsed time: 0.00 seconds
Elapsed time: 0.00 seconds
Elapsed time: 0.00 seconds
Elapsed time: 0.00 seconds
Elapsed time: 0.00 seconds
Elapsed time: 0.00 seconds
Elapsed time: 0.00 seconds
Elapsed time: 0.00 seconds
Elapsed time: 0.00 seconds
Elapsed time: 0.00 seconds
Elapsed time: 0.00 seconds
Elapsed time: 0.00 seconds
Elapsed time: 0.00 seconds
Elapsed time: 0.00 seconds
Elapsed time: 0.00 seconds
 
 ################
 ----------------
 CALL MACKIE F2PY
 ----------------
 ################
 
Elapsed time: 0.00 seconds
Elapsed time: 0.00 seconds
Elapsed time: 0.00 seconds
Elapsed time: 0.00 seconds
Elapsed time: 0.00 seconds
Elapsed time: 0.00 seconds
Elapsed time: 0.00 seconds
Elapsed time: 0.00 seconds
Elapsed time: 0.00 seconds
Elapsed time: 0.00 seconds
Elapsed time: 0.00 seconds
Elapsed time: 0.00 seconds
Elapsed time: 0.00 seconds
Elapsed time: 0.00 seconds
Elapsed time: 0.00 seconds
Elapsed time: 0.00 seconds
Elapsed time: 0.00 seconds
Elapsed time: 0.00 seconds
Elapsed time: 0.00 seconds
Elapsed time: 0.00 seconds
Elapsed time: 0.00 seconds
Elapsed time: 0.00 seconds
Elapsed time: 0.00 seconds
Elapsed time: 0.00 seconds
Elapsed time: 0.00 seconds
Elapsed time: 0.00 seconds
Elapsed time: 0.00 seconds
Elapsed time: 0.00 seconds
[...]
Elapsed time: 0.00 seconds
Elapsed time: 0.00 seconds
Elapsed time: 0.00 seconds
Elapsed time: 0.00 seconds
Elapsed time: 0.00 seconds
Elapsed time: 0.00 seconds
Elapsed time: 0.00 seconds
Elapsed time: 0.00 seconds
Elapsed time: 0.00 seconds
Elapsed time: 0.00 seconds
 
 ################
 ----------------
 CALL MACKIE F2PY
 ----------------
 ################
 
Elapsed time: 0.00 seconds
Elapsed time: 0.00 seconds
Elapsed time: 0.00 seconds
Elapsed time: 0.00 seconds
Elapsed time: 0.00 seconds
Elapsed time: 0.00 seconds
Elapsed time: 0.00 seconds
Elapsed time: 0.00 seconds
Elapsed time: 0.00 seconds
Elapsed time: 0.00 seconds
Elapsed time: 0.00 seconds
Elapsed time: 0.00 seconds
Elapsed time: 0.00 seconds
Elapsed time: 0.00 seconds
Elapsed time: 0.00 seconds
Elapsed time: 0.00 seconds
Elapsed time: 0.00 seconds
Elapsed time: 0.00 seconds
Elapsed time: 0.00 seconds
Elapsed time: 0.00 seconds
Elapsed time: 0.00 seconds
Elapsed time: 0.00 seconds
Elapsed time: 0.00 seconds
Elapsed time: 0.00 seconds
Elapsed time: 0.00 seconds
Elapsed time: 0.00 seconds
Elapsed time: 0.00 seconds
Elapsed time: 0.00 seconds
Elapsed time: 0.00 seconds
Elapsed time: 0.00 seconds
Elapsed time: 0.00 seconds
Elapsed time: 0.00 seconds
Elapsed time: 0.00 seconds
Elapsed time: 0.00 seconds
Elapsed time: 0.00 seconds
Elapsed time: 0.00 seconds
Elapsed time: 0.00 seconds
Elapsed time: 0.00 seconds
Elapsed time: 0.00 seconds
Elapsed time: 0.00 seconds
Elapsed time: 0.00 seconds
Elapsed time: 0.00 seconds
Elapsed time: 0.00 seconds
Elapsed time: 0.00 seconds
Elapsed time: 0.00 seconds
Elapsed time: 0.00 seconds
Elapsed time: 0.00 seconds
Elapsed time: 0.00 seconds
Elapsed time: 0.00 seconds
Elapsed time: 0.00 seconds
Elapsed time: 0.00 seconds
Elapsed time: 0.00 seconds
Elapsed time: 0.00 seconds
Elapsed time: 0.00 seconds
Elapsed time: 0.00 seconds
Elapsed time: 0.00 seconds
 
 ################
 ----------------
 CALL MACKIE F2PY
 ----------------
 ################
 
Elapsed time: 0.00 seconds
Elapsed time: 0.00 seconds
Elapsed time: 0.00 seconds
Elapsed time: 0.00 seconds
Elapsed time: 0.00 seconds
Elapsed time: 0.00 seconds
Elapsed time: 0.00 seconds
Elapsed time: 0.00 seconds
Elapsed time: 0.00 seconds
Elapsed time: 0.00 seconds
Elapsed time: 0.00 seconds
Elapsed time: 0.00 seconds
Elapsed time: 0.00 seconds
Elapsed time: 0.00 seconds
Elapsed time: 0.00 seconds
Elapsed time: 0.00 seconds
Elapsed time: 0.00 seconds
Elapsed time: 0.00 seconds
Elapsed time: 0.00 seconds
Elapsed time: 0.00 seconds
Elapsed time: 0.00 seconds
Elapsed time: 0.00 seconds
Elapsed time: 0.00 seconds
Elapsed time: 0.00 seconds
Elapsed time: 0.00 seconds
Elapsed time: 0.00 seconds
Elapsed time: 0.00 seconds
Elapsed time: 0.00 seconds
Elapsed time: 0.00 seconds
Elapsed time: 0.00 seconds
Elapsed time: 0.00 seconds
Elapsed time: 0.00 seconds
Elapsed time: 0.00 seconds
Elapsed time: 0.00 seconds
Elapsed time: 0.00 seconds
Elapsed time: 0.00 seconds
Elapsed time: 0.00 seconds
Elapsed time: 0.00 seconds
Elapsed time: 0.00 seconds
Elapsed time: 0.00 seconds
Elapsed time: 0.00 seconds
Elapsed time: 0.00 seconds
Elapsed time: 0.00 seconds
Elapsed time: 0.00 seconds
Elapsed time: 0.00 seconds
Elapsed time: 0.00 seconds
Elapsed time: 0.00 seconds
Elapsed time: 0.00 seconds
Elapsed time: 0.00 seconds
Elapsed time: 0.00 seconds
Elapsed time: 0.00 seconds
Elapsed time: 0.00 seconds
Elapsed time: 0.00 seconds
Elapsed time: 0.00 seconds
Elapsed time: 0.00 seconds
Elapsed time: 0.00 seconds
 
 ################
 ----------------
 CALL MACKIE F2PY
 ----------------
 ################
 
Elapsed time: 0.00 seconds
Elapsed time: 0.00 seconds
Elapsed time: 0.00 seconds
Elapsed time: 0.00 seconds
Elapsed time: 0.00 seconds
Elapsed time: 0.00 seconds
Elapsed time: 0.00 seconds
Elapsed time: 0.00 seconds
Elapsed time: 0.00 seconds
Elapsed time: 0.00 seconds
Elapsed time: 0.00 seconds
Elapsed time: 0.00 seconds
Elapsed time: 0.00 seconds
Elapsed time: 0.00 seconds
Elapsed time: 0.00 seconds
Elapsed time: 0.00 seconds
Elapsed time: 0.00 seconds
Elapsed time: 0.00 seconds
Elapsed time: 0.00 seconds
Elapsed time: 0.00 seconds
Elapsed time: 0.00 seconds
Elapsed time: 0.00 seconds
Elapsed time: 0.00 seconds
Elapsed time: 0.00 seconds
Elapsed time: 0.00 seconds
Elapsed time: 0.00 seconds
Elapsed time: 0.00 seconds
Elapsed time: 0.00 seconds
Elapsed time: 0.00 seconds
Elapsed time: 0.00 seconds
Elapsed time: 0.00 seconds
Elapsed time: 0.00 seconds
Elapsed time: 0.00 seconds
Elapsed time: 0.00 seconds
Elapsed time: 0.00 seconds
Elapsed time: 0.00 seconds
Elapsed time: 0.00 seconds
Elapsed time: 0.00 seconds
Elapsed time: 0.00 seconds
Elapsed time: 0.00 seconds
Elapsed time: 0.00 seconds
Elapsed time: 0.00 seconds
Elapsed time: 0.00 seconds
Elapsed time: 0.00 seconds
Elapsed time: 0.00 seconds
Elapsed time: 0.00 seconds
Elapsed time: 0.00 seconds
Elapsed time: 0.00 seconds
Elapsed time: 0.00 seconds
Elapsed time: 0.00 seconds
Elapsed time: 0.00 seconds
Elapsed time: 0.00 seconds
Elapsed time: 0.00 seconds
Elapsed time: 0.00 seconds
Elapsed time: 0.00 seconds
Elapsed time: 0.00 seconds
 
 ################
 ----------------
 CALL MACKIE F2PY
 ----------------
 ################
 
Elapsed time: 0.00 seconds
Elapsed time: 0.00 seconds
Elapsed time: 0.00 seconds
Elapsed time: 0.00 seconds
Elapsed time: 0.00 seconds
Elapsed time: 0.00 seconds
Elapsed time: 0.00 seconds
Elapsed time: 0.00 seconds
Elapsed time: 0.00 seconds
Elapsed time: 0.00 seconds
Elapsed time: 0.00 seconds
Elapsed time: 0.00 seconds
Elapsed time: 0.00 seconds
Elapsed time: 0.00 seconds
Elapsed time: 0.00 seconds
Elapsed time: 0.00 seconds
Elapsed time: 0.00 seconds
Elapsed time: 0.00 seconds
Elapsed time: 0.00 seconds
Elapsed time: 0.00 seconds
Elapsed time: 0.00 seconds
Elapsed time: 0.00 seconds
Elapsed time: 0.00 seconds
Elapsed time: 0.00 seconds
Elapsed time: 0.00 seconds
Elapsed time: 0.00 seconds
Elapsed time: 0.00 seconds
Elapsed time: 0.00 seconds
Elapsed time: 0.00 seconds
Elapsed time: 0.00 seconds
Elapsed time: 0.00 seconds
Elapsed time: 0.00 seconds
Elapsed time: 0.00 seconds
Elapsed time: 0.00 seconds
Elapsed time: 0.00 seconds
Elapsed time: 0.00 seconds
Elapsed time: 0.00 seconds
Elapsed time: 0.00 seconds
Elapsed time: 0.00 seconds
Elapsed time: 0.00 seconds
Elapsed time: 0.00 seconds
Elapsed time: 0.00 seconds
Elapsed time: 0.00 seconds
Elapsed time: 0.00 seconds
Elapsed time: 0.00 seconds
Elapsed time: 0.00 seconds
Elapsed time: 0.00 seconds
Elapsed time: 0.00 seconds
Elapsed time: 0.00 seconds
Elapsed time: 0.00 seconds
Elapsed time: 0.00 seconds
Elapsed time: 0.00 seconds
Elapsed time: 0.00 seconds
Elapsed time: 0.00 seconds
Elapsed time: 0.00 seconds
Elapsed time: 0.00 seconds
 
 ################
 ----------------
 CALL MACKIE F2PY
 ----------------
 ################
 
Elapsed time: 0.00 seconds
Elapsed time: 0.00 seconds
Elapsed time: 0.00 seconds
Elapsed time: 0.00 seconds
Elapsed time: 0.00 seconds
Elapsed time: 0.00 seconds
Elapsed time: 0.00 seconds
Elapsed time: 0.00 seconds
Elapsed time: 0.00 seconds
Elapsed time: 0.00 seconds
Elapsed time: 0.00 seconds
Elapsed time: 0.00 seconds
Elapsed time: 0.00 seconds
Elapsed time: 0.00 seconds
Elapsed time: 0.00 seconds
Elapsed time: 0.00 seconds
Elapsed time: 0.00 seconds
Elapsed time: 0.00 seconds
Elapsed time: 0.00 seconds
Elapsed time: 0.00 seconds
Elapsed time: 0.00 seconds
Elapsed time: 0.00 seconds
Elapsed time: 0.00 seconds
Elapsed time: 0.00 seconds
Elapsed time: 0.00 seconds
Elapsed time: 0.00 seconds
Elapsed time: 0.00 seconds
Elapsed time: 0.00 seconds
Elapsed time: 0.00 seconds
Elapsed time: 0.00 seconds
Elapsed time: 0.00 seconds
Elapsed time: 0.00 seconds
Elapsed time: 0.00 seconds
Elapsed time: 0.00 seconds
Elapsed time: 0.00 seconds
Elapsed time: 0.00 seconds
Elapsed time: 0.00 seconds
Elapsed time: 0.00 seconds
Elapsed time: 0.00 seconds
Elapsed time: 0.00 seconds
Elapsed time: 0.00 seconds
Elapsed time: 0.00 seconds
Elapsed time: 0.00 seconds
Elapsed time: 0.00 seconds
Elapsed time: 0.00 seconds
Elapsed time: 0.00 seconds
Elapsed time: 0.00 seconds
Elapsed time: 0.00 seconds
Elapsed time: 0.00 seconds
Elapsed time: 0.00 seconds
Elapsed time: 0.00 seconds
Elapsed time: 0.00 seconds
Elapsed time: 0.00 seconds
Elapsed time: 0.00 seconds
Elapsed time: 0.00 seconds
Elapsed time: 0.00 seconds
 
 ################
 ----------------
 CALL MACKIE F2PY
 ----------------
 ################
 
Elapsed time: 0.00 seconds
Elapsed time: 0.00 seconds
Elapsed time: 0.00 seconds
Elapsed time: 0.00 seconds
Elapsed time: 0.00 seconds
Elapsed time: 0.00 seconds
Elapsed time: 0.00 seconds
Elapsed time: 0.00 seconds
Elapsed time: 0.00 seconds
Elapsed time: 0.00 seconds
Elapsed time: 0.00 seconds
Elapsed time: 0.00 seconds
Elapsed time: 0.00 seconds
Elapsed time: 0.00 seconds
Elapsed time: 0.00 seconds
Elapsed time: 0.00 seconds
Elapsed time: 0.00 seconds
Elapsed time: 0.00 seconds
Elapsed time: 0.00 seconds
Elapsed time: 0.00 seconds
Elapsed time: 0.00 seconds
Elapsed time: 0.00 seconds
Elapsed time: 0.00 seconds
Elapsed time: 0.00 seconds
Elapsed time: 0.00 seconds
Elapsed time: 0.00 seconds
Elapsed time: 0.00 seconds
Elapsed time: 0.00 seconds
Elapsed time: 0.00 seconds
Elapsed time: 0.00 seconds
Elapsed time: 0.00 seconds
Elapsed time: 0.00 seconds
Elapsed time: 0.00 seconds
Elapsed time: 0.00 seconds
Elapsed time: 0.00 seconds
Elapsed time: 0.00 seconds
Elapsed time: 0.00 seconds
Elapsed time: 0.00 seconds
Elapsed time: 0.00 seconds
Elapsed time: 0.00 seconds
Elapsed time: 0.00 seconds
Elapsed time: 0.00 seconds
Elapsed time: 0.00 seconds
Elapsed time: 0.00 seconds
Elapsed time: 0.00 seconds
Elapsed time: 0.00 seconds
Elapsed time: 0.00 seconds
Elapsed time: 0.00 seconds
Elapsed time: 0.00 seconds
Elapsed time: 0.00 seconds
Elapsed time: 0.00 seconds
Elapsed time: 0.00 seconds
Elapsed time: 0.00 seconds
Elapsed time: 0.00 seconds
Elapsed time: 0.00 seconds
Elapsed time: 0.00 seconds
 
 ################
 ----------------
 CALL MACKIE F2PY
 ----------------
 ################
 
Elapsed time: 0.00 seconds
Elapsed time: 0.00 seconds
Elapsed time: 0.00 seconds
Elapsed time: 0.00 seconds
Elapsed time: 0.00 seconds
Elapsed time: 0.00 seconds
Elapsed time: 0.00 seconds
Elapsed time: 0.00 seconds
Elapsed time: 0.00 seconds
Elapsed time: 0.00 seconds
Elapsed time: 0.00 seconds
Elapsed time: 0.00 seconds
Elapsed time: 0.00 seconds
Elapsed time: 0.00 seconds
Elapsed time: 0.00 seconds
Elapsed time: 0.00 seconds
Elapsed time: 0.00 seconds
Elapsed time: 0.00 seconds
Elapsed time: 0.00 seconds
Elapsed time: 0.00 seconds
Elapsed time: 0.00 seconds
Elapsed time: 0.00 seconds
Elapsed time: 0.00 seconds
Elapsed time: 0.00 seconds
Elapsed time: 0.00 seconds
Elapsed time: 0.00 seconds
Elapsed time: 0.00 seconds
Elapsed time: 0.00 seconds
Elapsed time: 0.00 seconds
Elapsed time: 0.00 seconds
Elapsed time: 0.00 seconds
Elapsed time: 0.00 seconds
Elapsed time: 0.00 seconds
Elapsed time: 0.00 seconds
Elapsed time: 0.00 seconds
Elapsed time: 0.00 seconds
Elapsed time: 0.00 seconds
Elapsed time: 0.00 seconds
Elapsed time: 0.00 seconds
Elapsed time: 0.00 seconds
Elapsed time: 0.00 seconds
Elapsed time: 0.00 seconds
Elapsed time: 0.00 seconds
Elapsed time: 0.00 seconds
Elapsed time: 0.00 seconds
Elapsed time: 0.00 seconds
Elapsed time: 0.00 seconds
Elapsed time: 0.00 seconds
Elapsed time: 0.00 seconds
Elapsed time: 0.00 seconds
Elapsed time: 0.00 seconds
Elapsed time: 0.00 seconds
Elapsed time: 0.00 seconds
Elapsed time: 0.00 seconds
Elapsed time: 0.00 seconds
Elapsed time: 0.00 seconds
 
 ################
 ----------------
 CALL MACKIE F2PY
 ----------------
 ################
 
Elapsed time: 0.00 seconds
Elapsed time: 0.00 seconds
Elapsed time: 0.00 seconds
Elapsed time: 0.00 seconds
Elapsed time: 0.00 seconds
Elapsed time: 0.00 seconds
Elapsed time: 0.00 seconds
Elapsed time: 0.00 seconds
Elapsed time: 0.00 seconds
Elapsed time: 0.00 seconds
Elapsed time: 0.00 seconds
Elapsed time: 0.00 seconds
Elapsed time: 0.00 seconds
Elapsed time: 0.00 seconds
Elapsed time: 0.00 seconds
Elapsed time: 0.00 seconds
Elapsed time: 0.00 seconds
Elapsed time: 0.00 seconds
Elapsed time: 0.00 seconds
Elapsed time: 0.00 seconds
Elapsed time: 0.00 seconds
Elapsed time: 0.00 seconds
Elapsed time: 0.00 seconds
Elapsed time: 0.00 seconds
Elapsed time: 0.00 seconds
Elapsed time: 0.00 seconds
Elapsed time: 0.00 seconds
Elapsed time: 0.00 seconds
Elapsed time: 0.00 seconds
Elapsed time: 0.00 seconds
Elapsed time: 0.00 seconds
Elapsed time: 0.00 seconds
Elapsed time: 0.00 seconds
Elapsed time: 0.00 seconds
Elapsed time: 0.00 seconds
Elapsed time: 0.00 seconds
Elapsed time: 0.00 seconds
Elapsed time: 0.00 seconds
Elapsed time: 0.00 seconds
Elapsed time: 0.00 seconds
Elapsed time: 0.00 seconds
Elapsed time: 0.00 seconds
Elapsed time: 0.00 seconds
Elapsed time: 0.00 seconds
Elapsed time: 0.00 seconds
Elapsed time: 0.00 seconds
Elapsed time: 0.00 seconds
Elapsed time: 0.00 seconds
Elapsed time: 0.00 seconds
Elapsed time: 0.00 seconds
Elapsed time: 0.00 seconds
Elapsed time: 0.00 seconds
Elapsed time: 0.00 seconds
Elapsed time: 0.00 seconds
Elapsed time: 0.00 seconds
Elapsed time: 0.00 seconds
 
 ################
 ----------------
 CALL MACKIE F2PY
 ----------------
 ################
 
Elapsed time: 0.00 seconds
Elapsed time: 0.00 seconds
Elapsed time: 0.00 seconds
Elapsed time: 0.00 seconds
Elapsed time: 0.00 seconds
Elapsed time: 0.00 seconds
Elapsed time: 0.00 seconds
Elapsed time: 0.00 seconds
Elapsed time: 0.00 seconds
Elapsed time: 0.00 seconds
Elapsed time: 0.00 seconds
Elapsed time: 0.00 seconds
Elapsed time: 0.00 seconds
Elapsed time: 0.00 seconds
Elapsed time: 0.00 seconds
Elapsed time: 0.00 seconds
Elapsed time: 0.00 seconds
Elapsed time: 0.00 seconds
Elapsed time: 0.00 seconds
Elapsed time: 0.00 seconds
Elapsed time: 0.00 seconds
Elapsed time: 0.00 seconds
Elapsed time: 0.00 seconds
Elapsed time: 0.00 seconds
Elapsed time: 0.00 seconds
Elapsed time: 0.00 seconds
Elapsed time: 0.00 seconds
Elapsed time: 0.00 seconds
Elapsed time: 0.00 seconds
Elapsed time: 0.00 seconds
Elapsed time: 0.00 seconds
Elapsed time: 0.00 seconds
Elapsed time: 0.00 seconds
Elapsed time: 0.00 seconds
Elapsed time: 0.00 seconds
Elapsed time: 0.00 seconds
Elapsed time: 0.00 seconds
Elapsed time: 0.00 seconds
Elapsed time: 0.00 seconds
Elapsed time: 0.00 seconds
Elapsed time: 0.00 seconds
Elapsed time: 0.00 seconds
Elapsed time: 0.00 seconds
Elapsed time: 0.00 seconds
Elapsed time: 0.00 seconds
Elapsed time: 0.00 seconds
Elapsed time: 0.00 seconds
Elapsed time: 0.00 seconds
Elapsed time: 0.00 seconds
Elapsed time: 0.00 seconds
Elapsed time: 0.00 seconds
Elapsed time: 0.00 seconds
Elapsed time: 0.00 seconds
Elapsed time: 0.00 seconds
Elapsed time: 0.00 seconds
Elapsed time: 0.00 seconds
 
 ################
 ----------------
 CALL MACKIE F2PY
 ----------------
 ################
 
Elapsed time: 0.00 seconds
Elapsed time: 0.00 seconds
Elapsed time: 0.00 seconds
Elapsed time: 0.00 seconds
Elapsed time: 0.00 seconds
Elapsed time: 0.00 seconds
Elapsed time: 0.00 seconds
Elapsed time: 0.00 seconds
Elapsed time: 0.00 seconds
Elapsed time: 0.00 seconds
Elapsed time: 0.00 seconds
Elapsed time: 0.00 seconds
Elapsed time: 0.00 seconds
Elapsed time: 0.00 seconds
Elapsed time: 0.00 seconds
Elapsed time: 0.00 seconds
Elapsed time: 0.00 seconds
Elapsed time: 0.00 seconds
Elapsed time: 0.00 seconds
Elapsed time: 0.00 seconds
Elapsed time: 0.00 seconds
Elapsed time: 0.00 seconds
Elapsed time: 0.00 seconds
Elapsed time: 0.00 seconds
Elapsed time: 0.00 seconds
Elapsed time: 0.00 seconds
Elapsed time: 0.00 seconds
Elapsed time: 0.00 seconds
Elapsed time: 0.00 seconds
Elapsed time: 0.00 seconds
Elapsed time: 0.00 seconds
Elapsed time: 0.00 seconds
Elapsed time: 0.00 seconds
Elapsed time: 0.00 seconds
Elapsed time: 0.00 seconds
Elapsed time: 0.00 seconds
Elapsed time: 0.00 seconds
Elapsed time: 0.00 seconds
Elapsed time: 0.00 seconds
Elapsed time: 0.00 seconds
Elapsed time: 0.00 seconds
Elapsed time: 0.00 seconds
Elapsed time: 0.00 seconds
Elapsed time: 0.00 seconds
Elapsed time: 0.00 seconds
Elapsed time: 0.00 seconds
Elapsed time: 0.00 seconds
Elapsed time: 0.00 seconds
Elapsed time: 0.00 seconds
Elapsed time: 0.00 seconds
Elapsed time: 0.00 seconds
Elapsed time: 0.00 seconds
Elapsed time: 0.00 seconds
Elapsed time: 0.00 seconds
Elapsed time: 0.00 seconds
Elapsed time: 0.00 seconds
 
 ################
 ----------------
 CALL MACKIE F2PY
 ----------------
 ################
 
Elapsed time: 0.00 seconds
Elapsed time: 0.00 seconds
Elapsed time: 0.00 seconds
Elapsed time: 0.00 seconds
Elapsed time: 0.00 seconds
Elapsed time: 0.00 seconds
Elapsed time: 0.00 seconds
Elapsed time: 0.00 seconds
Elapsed time: 0.00 seconds
Elapsed time: 0.00 seconds
Elapsed time: 0.00 seconds
Elapsed time: 0.00 seconds
Elapsed time: 0.00 seconds
Elapsed time: 0.00 seconds
Elapsed time: 0.00 seconds
Elapsed time: 0.00 seconds
Elapsed time: 0.00 seconds
Elapsed time: 0.00 seconds
Elapsed time: 0.00 seconds
Elapsed time: 0.00 seconds
Elapsed time: 0.00 seconds
Elapsed time: 0.00 seconds
Elapsed time: 0.00 seconds
Elapsed time: 0.00 seconds
Elapsed time: 0.00 seconds
Elapsed time: 0.00 seconds
Elapsed time: 0.00 seconds
Elapsed time: 0.00 seconds
Elapsed time: 0.00 seconds
Elapsed time: 0.00 seconds
Elapsed time: 0.00 seconds
Elapsed time: 0.00 seconds
Elapsed time: 0.00 seconds
Elapsed time: 0.00 seconds
Elapsed time: 0.00 seconds
Elapsed time: 0.00 seconds
Elapsed time: 0.00 seconds
Elapsed time: 0.00 seconds
Elapsed time: 0.00 seconds
Elapsed time: 0.00 seconds
Elapsed time: 0.00 seconds
Elapsed time: 0.00 seconds
Elapsed time: 0.00 seconds
Elapsed time: 0.00 seconds
Elapsed time: 0.00 seconds
Elapsed time: 0.00 seconds
Elapsed time: 0.00 seconds
Elapsed time: 0.00 seconds
Elapsed time: 0.00 seconds
Elapsed time: 0.00 seconds
Elapsed time: 0.00 seconds
Elapsed time: 0.00 seconds
Elapsed time: 0.00 seconds
Elapsed time: 0.00 seconds
Elapsed time: 0.00 seconds
Elapsed time: 0.00 seconds
 
 ################
 ----------------
 CALL MACKIE F2PY
 ----------------
 ################
 
Elapsed time: 0.00 seconds
Elapsed time: 0.00 seconds
Elapsed time: 0.00 seconds
Elapsed time: 0.00 seconds
Elapsed time: 0.00 seconds
Elapsed time: 0.00 seconds
Elapsed time: 0.00 seconds
Elapsed time: 0.00 seconds
Elapsed time: 0.00 seconds
Elapsed time: 0.00 seconds
Elapsed time: 0.00 seconds
Elapsed time: 0.00 seconds
Elapsed time: 0.00 seconds
Elapsed time: 0.00 seconds
Elapsed time: 0.00 seconds
Elapsed time: 0.00 seconds
Elapsed time: 0.00 seconds
Elapsed time: 0.00 seconds
Elapsed time: 0.00 seconds
Elapsed time: 0.00 seconds
Elapsed time: 0.00 seconds
Elapsed time: 0.00 seconds
Elapsed time: 0.00 seconds
Elapsed time: 0.00 seconds
Elapsed time: 0.00 seconds
Elapsed time: 0.00 seconds
Elapsed time: 0.00 seconds
Elapsed time: 0.00 seconds
Elapsed time: 0.00 seconds
Elapsed time: 0.00 seconds
Elapsed time: 0.00 seconds
Elapsed time: 0.00 seconds
Elapsed time: 0.00 seconds
Elapsed time: 0.00 seconds
Elapsed time: 0.00 seconds
Elapsed time: 0.00 seconds
Elapsed time: 0.00 seconds
Elapsed time: 0.00 seconds
(3456,)
Elapsed time: 0.00 seconds
Elapsed time: 0.00 seconds
(3456,)
Elapsed time: 0.00 seconds
(3456,)
Elapsed time: 0.00 seconds
(3456,)
(3456,)
Elapsed time: 0.00 seconds
(3456,)
(3456,)
Elapsed time: 0.00 seconds
(3456,)
(3456,)
(3456,)
Elapsed time: 0.00 seconds
(3456,)
(3456,)
(3456,)
(3456,)
(3456,)
(3456,)
(3456,)
(3456,)
(3456,)
(3456,)
(3456,)
Elapsed time: 0.00 seconds
(3456,)
(3456,)
Elapsed time: 0.00 seconds
(3456,)
(3456,)
Elapsed time: 0.00 seconds
(3456,)
(3456,)
Elapsed time: 0.00 seconds
(3456,)
(3456,)
(3456,)
(3456,)
(3456,)
(3456,)
(3456,)
(3456,)
(3456,)
Elapsed time: 0.00 seconds
(3456,)
(3456,)
Elapsed time: 0.00 seconds
(3456,)
(3456,)
Elapsed time: 0.00 seconds
(3456,)
Elapsed time: 0.00 seconds
(3456,)
Elapsed time: 0.00 seconds
(3456,)
(3456,)
(3456,)
(3456,)
(3456,)
(3456,)
(3456,)
(3456,)
Elapsed time: 0.00 seconds
(3456,)
(3456,)
(3456,)
(3456,)
(3456,)
Elapsed time: 0.00 seconds
(3456,)
